/*---------------------------------------------------------------------------*\
| =========                 |                                                 |
| \\      /  F ield         | OpenFOAM: The Open Source CFD Toolbox           |
|  \\    /   O peration     | Version:  3.0.0                                 |
|   \\  /    A nd           | Web:      www.OpenFOAM.org                      |
|    \\/     M anipulation  |                                                 |
\*---------------------------------------------------------------------------*/
Build  : 3.0.0-6abec57f5449
Exec   : twoPhaseMixingCentralDyMFoam
Date   : Apr 24 2016
Time   : 22:48:58
Host   : "bl460-7.unicluster.ru"
PID    : 19805
Case   : /lustre/unicluster/home/matvey.kraposhin/run/Unicfdlab/github-twoPhaseMixingCentralFoam/Tutorials-3.0.0/movingMesh/movingCone
nProcs : 1
sigFpe : Enabling floating point exception trapping (FOAM_SIGFPE).
fileModificationChecking : Monitoring run-time modified files using timeStampMaster
allowSystemOperations : Allowing user-supplied system call operations

// * * * * * * * * * * * * * * * * * * * * * * * * * * * * * * * * * * * * * //
Create time

Create mesh for time = 0

Selecting dynamicFvMesh dynamicMotionSolverFvMesh
Selecting motion solver: velocityComponentLaplacian
Selecting motion diffusion: directional

PIMPLE: Operating solver in PISO mode

Reading g

Reading transportProperties

Reading field U

Constructing compressibleTwoPhaseMixtureThermo

max/min T: 300/300
Reading thermophysical properties

max/min T: 300/300
Calculating mass flux field phi

Creating turbulence model

Selecting turbulence model type laminar
Creating field dpdt

Creating field gradp

Creating field kinetic energy K

Declare and initialise the cumulative continuity error

No MRF models present

No finite volume options present

Marking cells with bad quality to limit pressure gradient
Courant Number mean: 0 max: 0.6 velocity magnitude: 1
Reading surface description:
    zNormal


Starting time loop

Mean and max Acoustic Courant Numbers = 26.313 998.111
Courant Number mean: 0 max: 0.489796 velocity magnitude: 1
deltaT = 4.08163e-06
Time = 4.08163e-06

DICPCG:  Solving for cellMotionUx, Initial residual = 1, Final residual = 7.5164e-09, No Iterations 41
Mesh Courant Number mean: 0.0363681 max: 0.113389
Marking cells with bad quality to limit pressure gradient
PIMPLE: iteration 1
diagonal:  Solving for rho, Initial residual = 0, Final residual = 0, No Iterations 0
rho max/min : 1.2162 / 1.03452
Creating matrix for fvOptions
DILUPBiCG:  Solving for Y.Liq, Initial residual = 0, Final residual = 0, No Iterations 0
Mass fraction min/max = 0/0
DILUPBiCG:  Solving for Ux, Initial residual = 0.999999, Final residual = 3.57117e-11, No Iterations 3
DILUPBiCG:  Solving for Uy, Initial residual = 0.014523, Final residual = 1.02772e-09, No Iterations 2
DILUPBiCG:  Solving for Uz, Initial residual = 2.42508e-10, Final residual = 2.42508e-10, No Iterations 0
max(mag(U)): 1
DILUPBiCG:  Solving for h, Initial residual = 0.665769, Final residual = 8.49555e-11, No Iterations 3
max/min T: 300/300
DILUPBiCG:  Solving for p, Initial residual = 1, Final residual = 3.56528e-09, No Iterations 76
DILUPBiCG:  Solving for p, Initial residual = 0.0723458, Final residual = 2.52117e-09, No Iterations 71
max(mag(U)): 2.12406
max/min p: 101583/101211
diagonal:  Solving for rho, Initial residual = 0, Final residual = 0, No Iterations 0
rho max/min : 1.17947 / 1.17515
time step continuity errors : sum local = 6.69432e-12, global = -5.02745e-14, cumulative = 0
max/min T: 300/300
DILUPBiCG:  Solving for p, Initial residual = 0.0142762, Final residual = 9.27367e-09, No Iterations 66
DILUPBiCG:  Solving for p, Initial residual = 0.00114525, Final residual = 8.76285e-09, No Iterations 58
max(mag(U)): 2.08775
max/min p: 101584/101212
diagonal:  Solving for rho, Initial residual = 0, Final residual = 0, No Iterations 0
rho max/min : 1.17948 / 1.17516
time step continuity errors : sum local = 2.23526e-11, global = 9.03755e-14, cumulative = 9.03755e-14
max/min Maf: 0.00513542/0
max/min MaFunction: 0.00513542/0
max/min FaceAcCourant: 499.055/3.05551
max/min kappa: 0.000679085/0
ExecutionTime = 0.23 s  ClockTime = 1 s

Mean and max Acoustic Courant Numbers = 13.1444 499.055
Courant Number mean: 0.0152875 max: 0.482666 velocity magnitude: 1.82591
deltaT = 4.16848e-06
Time = 8.25011e-06

DICPCG:  Solving for cellMotionUx, Initial residual = 0.0070713, Final residual = 7.10352e-09, No Iterations 36
Mesh Courant Number mean: 0.0375774 max: 0.116158
Marking cells with bad quality to limit pressure gradient
PIMPLE: iteration 1
diagonal:  Solving for rho, Initial residual = 0, Final residual = 0, No Iterations 0
rho max/min : 1.18255 / 1.17385
Creating matrix for fvOptions
DILUPBiCG:  Solving for Y.Liq, Initial residual = 0, Final residual = 0, No Iterations 0
Mass fraction min/max = 0/0
DILUPBiCG:  Solving for Ux, Initial residual = 0.392671, Final residual = 8.97093e-11, No Iterations 3
DILUPBiCG:  Solving for Uy, Initial residual = 0.3158, Final residual = 7.68217e-11, No Iterations 3
DILUPBiCG:  Solving for Uz, Initial residual = 0.310293, Final residual = 2.6945e-11, No Iterations 3
max(mag(U)): 3.97284
DILUPBiCG:  Solving for h, Initial residual = 1, Final residual = 2.48307e-10, No Iterations 3
max/min T: 300.216/299.906
DILUPBiCG:  Solving for p, Initial residual = 0.610204, Final residual = 7.92118e-09, No Iterations 69
DILUPBiCG:  Solving for p, Initial residual = 0.0114635, Final residual = 6.9869e-09, No Iterations 61
max(mag(U)): 2.55975
max/min p: 101525/101262
diagonal:  Solving for rho, Initial residual = 0, Final residual = 0, No Iterations 0
rho max/min : 1.17804 / 1.17596
time step continuity errors : sum local = 6.0266e-11, global = -1.19005e-13, cumulative = 9.03755e-14
max/min T: 300.216/299.906
DILUPBiCG:  Solving for p, Initial residual = 0.00907344, Final residual = 4.5766e-09, No Iterations 63
DILUPBiCG:  Solving for p, Initial residual = 0.000465161, Final residual = 7.83136e-09, No Iterations 55
max(mag(U)): 2.65285
max/min p: 101525/101262
diagonal:  Solving for rho, Initial residual = 0, Final residual = 0, No Iterations 0
rho max/min : 1.17804 / 1.17595
time step continuity errors : sum local = 6.57366e-11, global = 5.08163e-14, cumulative = 1.41192e-13
max/min Maf: 0.00797351/0
max/min MaFunction: 0.00797351/0
max/min FaceAcCourant: 509.671/3.12446
max/min kappa: 0.00102832/0
ExecutionTime = 0.33 s  ClockTime = 1 s

Mean and max Acoustic Courant Numbers = 13.4097 509.671
Courant Number mean: 0.0260072 max: 0.487339 velocity magnitude: 2.83524
deltaT = 4.26111e-06
Time = 1.25112e-05

DICPCG:  Solving for cellMotionUx, Initial residual = 0.000765774, Final residual = 7.65187e-09, No Iterations 34
Mesh Courant Number mean: 0.0382185 max: 0.116619
Marking cells with bad quality to limit pressure gradient
PIMPLE: iteration 1
diagonal:  Solving for rho, Initial residual = 0, Final residual = 0, No Iterations 0
rho max/min : 1.17825 / 1.1759
Creating matrix for fvOptions
DILUPBiCG:  Solving for Y.Liq, Initial residual = 0, Final residual = 0, No Iterations 0
Mass fraction min/max = 0/0
DILUPBiCG:  Solving for Ux, Initial residual = 0.23676, Final residual = 1.96518e-10, No Iterations 3
DILUPBiCG:  Solving for Uy, Initial residual = 0.14206, Final residual = 1.93341e-10, No Iterations 3
DILUPBiCG:  Solving for Uz, Initial residual = 0.223745, Final residual = 3.90777e-11, No Iterations 3
max(mag(U)): 3.22705
DILUPBiCG:  Solving for h, Initial residual = 0.283079, Final residual = 2.21846e-10, No Iterations 3
max/min T: 300.167/299.947
DILUPBiCG:  Solving for p, Initial residual = 0.10758, Final residual = 6.15735e-09, No Iterations 66
DILUPBiCG:  Solving for p, Initial residual = 0.00549738, Final residual = 9.98755e-09, No Iterations 63
max(mag(U)): 2.75435
max/min p: 101465/101309
diagonal:  Solving for rho, Initial residual = 0, Final residual = 0, No Iterations 0
rho max/min : 1.17782 / 1.17643
time step continuity errors : sum local = 1.63863e-10, global = -1.48003e-12, cumulative = 1.41192e-13
max/min T: 300.167/299.947
DILUPBiCG:  Solving for p, Initial residual = 0.00468982, Final residual = 6.31295e-09, No Iterations 61
DILUPBiCG:  Solving for p, Initial residual = 0.000220909, Final residual = 9.99968e-09, No Iterations 55
max(mag(U)): 2.77124
max/min p: 101465/101309
diagonal:  Solving for rho, Initial residual = 0, Final residual = 0, No Iterations 0
rho max/min : 1.17782 / 1.17643
time step continuity errors : sum local = 1.62647e-10, global = 4.46026e-13, cumulative = 5.87218e-13
max/min Maf: 0.00849206/0
max/min MaFunction: 0.00849206/0
max/min FaceAcCourant: 520.999/3.19812
max/min kappa: 0.0010699/0
ExecutionTime = 0.45 s  ClockTime = 1 s

Mean and max Acoustic Courant Numbers = 13.6915 520.999
Courant Number mean: 0.0299636 max: 0.549517 velocity magnitude: 3.01965
deltaT = 3.8263e-06
Time = 1.63375e-05

DICPCG:  Solving for cellMotionUx, Initial residual = 0.000367797, Final residual = 9.14764e-09, No Iterations 31
Mesh Courant Number mean: 0.0343862 max: 0.103789
Marking cells with bad quality to limit pressure gradient
PIMPLE: iteration 1
diagonal:  Solving for rho, Initial residual = 0, Final residual = 0, No Iterations 0
rho max/min : 1.17837 / 1.17647
Creating matrix for fvOptions
DILUPBiCG:  Solving for Y.Liq, Initial residual = 0, Final residual = 0, No Iterations 0
Mass fraction min/max = 0/0
DILUPBiCG:  Solving for Ux, Initial residual = 0.112593, Final residual = 8.5285e-11, No Iterations 3
DILUPBiCG:  Solving for Uy, Initial residual = 0.0452238, Final residual = 7.45384e-11, No Iterations 3
DILUPBiCG:  Solving for Uz, Initial residual = 0.187243, Final residual = 6.89655e-11, No Iterations 3
max(mag(U)): 2.87756
DILUPBiCG:  Solving for h, Initial residual = 0.245846, Final residual = 9.83137e-11, No Iterations 3
max/min T: 300.115/299.983
DILUPBiCG:  Solving for p, Initial residual = 0.0448608, Final residual = 8.70595e-10, No Iterations 67
DILUPBiCG:  Solving for p, Initial residual = 0.00341376, Final residual = 4.19811e-09, No Iterations 61
max(mag(U)): 2.77452
max/min p: 101503/101325
diagonal:  Solving for rho, Initial residual = 0, Final residual = 0, No Iterations 0
rho max/min : 1.17813 / 1.17647
time step continuity errors : sum local = 7.76018e-11, global = 8.89779e-13, cumulative = 5.87218e-13
max/min T: 300.115/299.983
DILUPBiCG:  Solving for p, Initial residual = 0.00233694, Final residual = 4.79622e-09, No Iterations 57
DILUPBiCG:  Solving for p, Initial residual = 0.000133891, Final residual = 5.72889e-09, No Iterations 54
max(mag(U)): 2.76836
max/min p: 101503/101325
diagonal:  Solving for rho, Initial residual = 0, Final residual = 0, No Iterations 0
rho max/min : 1.17813 / 1.17647
time step continuity errors : sum local = 1.05661e-10, global = 1.24158e-12, cumulative = 1.82879e-12
max/min Maf: 0.00740303/0
max/min MaFunction: 0.00740303/0
max/min FaceAcCourant: 467.839/2.87513
max/min kappa: 0.00103393/0
ExecutionTime = 0.55 s  ClockTime = 1 s

Mean and max Acoustic Courant Numbers = 12.2806 467.839
Courant Number mean: 0.0258117 max: 0.509429 velocity magnitude: 2.63248
deltaT = 3.74821e-06
Time = 2.00857e-05

DICPCG:  Solving for cellMotionUx, Initial residual = 0.000158003, Final residual = 5.34716e-09, No Iterations 21
Mesh Courant Number mean: 0.0336593 max: 0.100491
Marking cells with bad quality to limit pressure gradient
PIMPLE: iteration 1
diagonal:  Solving for rho, Initial residual = 0, Final residual = 0, No Iterations 0
rho max/min : 1.17845 / 1.17641
Creating matrix for fvOptions
DILUPBiCG:  Solving for Y.Liq, Initial residual = 0, Final residual = 0, No Iterations 0
Mass fraction min/max = 0/0
DILUPBiCG:  Solving for Ux, Initial residual = 0.152029, Final residual = 4.60701e-11, No Iterations 3
DILUPBiCG:  Solving for Uy, Initial residual = 0.0221617, Final residual = 1.20042e-10, No Iterations 3
DILUPBiCG:  Solving for Uz, Initial residual = 0.1562, Final residual = 5.13555e-11, No Iterations 3
max(mag(U)): 2.79507
DILUPBiCG:  Solving for h, Initial residual = 0.208455, Final residual = 1.18391e-10, No Iterations 3
max/min T: 300.14/300
DILUPBiCG:  Solving for p, Initial residual = 0.0202399, Final residual = 1.96618e-09, No Iterations 64
DILUPBiCG:  Solving for p, Initial residual = 0.00130075, Final residual = 8.55021e-09, No Iterations 60
max(mag(U)): 2.76006
max/min p: 101517/101325
diagonal:  Solving for rho, Initial residual = 0, Final residual = 0, No Iterations 0
rho max/min : 1.17816 / 1.17648
time step continuity errors : sum local = 1.84009e-10, global = -1.02935e-13, cumulative = 1.82879e-12
max/min T: 300.14/300
DILUPBiCG:  Solving for p, Initial residual = 0.00112358, Final residual = 7.65965e-09, No Iterations 54
DILUPBiCG:  Solving for p, Initial residual = 5.82614e-05, Final residual = 4.31519e-09, No Iterations 49
max(mag(U)): 2.75914
max/min p: 101517/101325
diagonal:  Solving for rho, Initial residual = 0, Final residual = 0, No Iterations 0
rho max/min : 1.17816 / 1.17648
time step continuity errors : sum local = 9.28348e-11, global = 6.21836e-13, cumulative = 2.45063e-12
max/min Maf: 0.00759636/0
max/min MaFunction: 0.00759636/0
max/min FaceAcCourant: 458.29/2.81941
max/min kappa: 0.000994554/0
ExecutionTime = 0.65 s  ClockTime = 1 s

Mean and max Acoustic Courant Numbers = 12.0166 458.29
Courant Number mean: 0.0231388 max: 0.512066 velocity magnitude: 2.70129
deltaT = 3.59829e-06
Time = 2.3684e-05

DICPCG:  Solving for cellMotionUx, Initial residual = 9.14111e-05, Final residual = 9.91761e-09, No Iterations 19
Mesh Courant Number mean: 0.032324 max: 0.0955226
Marking cells with bad quality to limit pressure gradient
PIMPLE: iteration 1
diagonal:  Solving for rho, Initial residual = 0, Final residual = 0, No Iterations 0
rho max/min : 1.17818 / 1.17648
Creating matrix for fvOptions
DILUPBiCG:  Solving for Y.Liq, Initial residual = 0, Final residual = 0, No Iterations 0
Mass fraction min/max = 0/0
DILUPBiCG:  Solving for Ux, Initial residual = 0.165559, Final residual = 3.0605e-11, No Iterations 3
DILUPBiCG:  Solving for Uy, Initial residual = 0.0258389, Final residual = 2.52132e-11, No Iterations 3
DILUPBiCG:  Solving for Uz, Initial residual = 0.147812, Final residual = 1.9778e-11, No Iterations 3
max(mag(U)): 2.83539
DILUPBiCG:  Solving for h, Initial residual = 0.150696, Final residual = 1.70686e-10, No Iterations 3
max/min T: 300.151/300
DILUPBiCG:  Solving for p, Initial residual = 0.0142153, Final residual = 4.50861e-09, No Iterations 58
DILUPBiCG:  Solving for p, Initial residual = 0.000786103, Final residual = 8.91194e-09, No Iterations 57
max(mag(U)): 2.86372
max/min p: 101511/101325
diagonal:  Solving for rho, Initial residual = 0, Final residual = 0, No Iterations 0
rho max/min : 1.17804 / 1.17648
time step continuity errors : sum local = 1.93861e-10, global = 1.31986e-12, cumulative = 2.45063e-12
max/min T: 300.151/300
DILUPBiCG:  Solving for p, Initial residual = 0.000934881, Final residual = 9.41845e-09, No Iterations 54
DILUPBiCG:  Solving for p, Initial residual = 5.27062e-05, Final residual = 3.29302e-09, No Iterations 48
max(mag(U)): 2.86724
max/min p: 101511/101325
diagonal:  Solving for rho, Initial residual = 0, Final residual = 0, No Iterations 0
rho max/min : 1.17804 / 1.17648
time step continuity errors : sum local = 7.16416e-11, global = 3.01151e-12, cumulative = 5.46214e-12
max/min Maf: 0.00784478/0
max/min MaFunction: 0.00784478/0
max/min FaceAcCourant: 439.959/2.70939
max/min kappa: 0.00102558/0
ExecutionTime = 0.75 s  ClockTime = 1 s

Mean and max Acoustic Courant Numbers = 11.5242 439.959
Courant Number mean: 0.0227362 max: 0.507665 velocity magnitude: 2.78971
deltaT = 3.52632e-06
Time = 2.72103e-05

DICPCG:  Solving for cellMotionUx, Initial residual = 4.64939e-05, Final residual = 6.71634e-09, No Iterations 19
Mesh Courant Number mean: 0.031674 max: 0.0926703
Marking cells with bad quality to limit pressure gradient
PIMPLE: iteration 1
diagonal:  Solving for rho, Initial residual = 0, Final residual = 0, No Iterations 0
rho max/min : 1.17822 / 1.17648
Creating matrix for fvOptions
DILUPBiCG:  Solving for Y.Liq, Initial residual = 0, Final residual = 0, No Iterations 0
Mass fraction min/max = 0/0
DILUPBiCG:  Solving for Ux, Initial residual = 0.129961, Final residual = 6.80424e-11, No Iterations 3
DILUPBiCG:  Solving for Uy, Initial residual = 0.0285164, Final residual = 4.03325e-11, No Iterations 3
DILUPBiCG:  Solving for Uz, Initial residual = 0.144047, Final residual = 2.07737e-11, No Iterations 3
max(mag(U)): 2.93319
DILUPBiCG:  Solving for h, Initial residual = 0.0838742, Final residual = 1.34605e-10, No Iterations 3
max/min T: 300.147/300
DILUPBiCG:  Solving for p, Initial residual = 0.013836, Final residual = 4.36086e-09, No Iterations 59
DILUPBiCG:  Solving for p, Initial residual = 0.00092632, Final residual = 5.31831e-09, No Iterations 56
max(mag(U)): 2.99928
max/min p: 101509/101325
diagonal:  Solving for rho, Initial residual = 0, Final residual = 0, No Iterations 0
rho max/min : 1.17804 / 1.17648
time step continuity errors : sum local = 1.11719e-10, global = 8.9833e-13, cumulative = 5.46214e-12
max/min T: 300.147/300
DILUPBiCG:  Solving for p, Initial residual = 0.00133996, Final residual = 9.75819e-09, No Iterations 54
DILUPBiCG:  Solving for p, Initial residual = 6.25594e-05, Final residual = 8.40792e-09, No Iterations 44
max(mag(U)): 3.00592
max/min p: 101509/101325
diagonal:  Solving for rho, Initial residual = 0, Final residual = 0, No Iterations 0
rho max/min : 1.17804 / 1.17648
time step continuity errors : sum local = 1.76617e-10, global = 4.70977e-12, cumulative = 1.01719e-11
max/min Maf: 0.00815574/0
max/min MaFunction: 0.00815574/0
max/min FaceAcCourant: 431.161/2.65787
max/min kappa: 0.0010805/0
ExecutionTime = 0.85 s  ClockTime = 1 s

Mean and max Acoustic Courant Numbers = 11.2833 431.161
Courant Number mean: 0.0261638 max: 0.520225 velocity magnitude: 2.90038
deltaT = 3.38803e-06
Time = 3.05984e-05

DICPCG:  Solving for cellMotionUx, Initial residual = 2.82274e-05, Final residual = 6.62117e-09, No Iterations 18
Mesh Courant Number mean: 0.0304342 max: 0.0882011
Marking cells with bad quality to limit pressure gradient
PIMPLE: iteration 1
diagonal:  Solving for rho, Initial residual = 0, Final residual = 0, No Iterations 0
rho max/min : 1.17812 / 1.17648
Creating matrix for fvOptions
DILUPBiCG:  Solving for Y.Liq, Initial residual = 0, Final residual = 0, No Iterations 0
Mass fraction min/max = 0/0
DILUPBiCG:  Solving for Ux, Initial residual = 0.0937299, Final residual = 2.28082e-11, No Iterations 3
DILUPBiCG:  Solving for Uy, Initial residual = 0.0299554, Final residual = 5.36947e-10, No Iterations 3
DILUPBiCG:  Solving for Uz, Initial residual = 0.129776, Final residual = 1.90662e-11, No Iterations 3
max(mag(U)): 3.10432
DILUPBiCG:  Solving for h, Initial residual = 0.0496994, Final residual = 5.67199e-11, No Iterations 3
max/min T: 300.159/300
DILUPBiCG:  Solving for p, Initial residual = 0.0134436, Final residual = 3.34569e-09, No Iterations 61
DILUPBiCG:  Solving for p, Initial residual = 0.000867689, Final residual = 6.39295e-09, No Iterations 56
max(mag(U)): 3.19021
max/min p: 101507/101325
diagonal:  Solving for rho, Initial residual = 0, Final residual = 0, No Iterations 0
rho max/min : 1.17798 / 1.17648
time step continuity errors : sum local = 1.16263e-10, global = 3.04634e-13, cumulative = 1.01719e-11
max/min T: 300.159/300
DILUPBiCG:  Solving for p, Initial residual = 0.00168474, Final residual = 4.56558e-09, No Iterations 49
DILUPBiCG:  Solving for p, Initial residual = 7.4676e-05, Final residual = 3.57879e-09, No Iterations 46
max(mag(U)): 3.196
max/min p: 101507/101325
diagonal:  Solving for rho, Initial residual = 0, Final residual = 0, No Iterations 0
rho max/min : 1.17798 / 1.17648
time step continuity errors : sum local = 6.51115e-11, global = 3.72397e-13, cumulative = 1.05443e-11
max/min Maf: 0.00849446/0
max/min MaFunction: 0.00849446/0
max/min FaceAcCourant: 414.252/2.55611
max/min kappa: 0.00117142/0
ExecutionTime = 0.96 s  ClockTime = 1 s

Mean and max Acoustic Courant Numbers = 10.8312 414.252
Courant Number mean: 0.0287317 max: 0.527932 velocity magnitude: 3.02088
deltaT = 3.19626e-06
Time = 3.37946e-05

DICPCG:  Solving for cellMotionUx, Initial residual = 1.66637e-05, Final residual = 9.01898e-09, No Iterations 17
Mesh Courant Number mean: 0.0287115 max: 0.0824714
Marking cells with bad quality to limit pressure gradient
PIMPLE: iteration 1
diagonal:  Solving for rho, Initial residual = 0, Final residual = 0, No Iterations 0
rho max/min : 1.17793 / 1.17648
Creating matrix for fvOptions
DILUPBiCG:  Solving for Y.Liq, Initial residual = 0, Final residual = 0, No Iterations 0
Mass fraction min/max = 0/0
DILUPBiCG:  Solving for Ux, Initial residual = 0.0738891, Final residual = 1.66038e-11, No Iterations 3
DILUPBiCG:  Solving for Uy, Initial residual = 0.0268189, Final residual = 6.97958e-11, No Iterations 3
DILUPBiCG:  Solving for Uz, Initial residual = 0.127129, Final residual = 6.79537e-09, No Iterations 2
max(mag(U)): 3.34445
DILUPBiCG:  Solving for h, Initial residual = 0.0490637, Final residual = 4.43766e-11, No Iterations 3
max/min T: 300.157/300
DILUPBiCG:  Solving for p, Initial residual = 0.0170509, Final residual = 2.79628e-09, No Iterations 59
DILUPBiCG:  Solving for p, Initial residual = 0.00126523, Final residual = 7.65062e-09, No Iterations 56
max(mag(U)): 3.36554
max/min p: 101494/101325
diagonal:  Solving for rho, Initial residual = 0, Final residual = 0, No Iterations 0
rho max/min : 1.1779 / 1.17648
time step continuity errors : sum local = 1.12375e-10, global = 1.92723e-12, cumulative = 1.05443e-11
max/min T: 300.157/300
DILUPBiCG:  Solving for p, Initial residual = 0.00189906, Final residual = 4.96015e-09, No Iterations 56
DILUPBiCG:  Solving for p, Initial residual = 0.000111477, Final residual = 3.22789e-09, No Iterations 47
max(mag(U)): 3.36503
max/min p: 101494/101325
diagonal:  Solving for rho, Initial residual = 0, Final residual = 0, No Iterations 0
rho max/min : 1.1779 / 1.17648
time step continuity errors : sum local = 4.74319e-11, global = -8.81648e-13, cumulative = 9.66266e-12
max/min Maf: 0.00885307/0
max/min MaFunction: 0.00885307/0
max/min FaceAcCourant: 390.803/2.41362
max/min kappa: 0.00129346/0
ExecutionTime = 1.06 s  ClockTime = 1 s

Mean and max Acoustic Courant Numbers = 10.2094 390.803
Courant Number mean: 0.0298932 max: 0.522243 velocity magnitude: 3.14838
deltaT = 3.02192e-06
Time = 3.68165e-05

DICPCG:  Solving for cellMotionUx, Initial residual = 1.12308e-05, Final residual = 6.88042e-09, No Iterations 17
Mesh Courant Number mean: 0.0271461 max: 0.077327
Marking cells with bad quality to limit pressure gradient
PIMPLE: iteration 1
diagonal:  Solving for rho, Initial residual = 0, Final residual = 0, No Iterations 0
rho max/min : 1.17788 / 1.17648
Creating matrix for fvOptions
DILUPBiCG:  Solving for Y.Liq, Initial residual = 0, Final residual = 0, No Iterations 0
Mass fraction min/max = 0/0
DILUPBiCG:  Solving for Ux, Initial residual = 0.0590347, Final residual = 1.72069e-11, No Iterations 3
DILUPBiCG:  Solving for Uy, Initial residual = 0.0230859, Final residual = 4.69275e-11, No Iterations 3
DILUPBiCG:  Solving for Uz, Initial residual = 0.116509, Final residual = 5.76334e-11, No Iterations 3
max(mag(U)): 3.49992
DILUPBiCG:  Solving for h, Initial residual = 0.0779667, Final residual = 6.39902e-11, No Iterations 3
max/min T: 300.144/300
DILUPBiCG:  Solving for p, Initial residual = 0.0204383, Final residual = 5.49376e-09, No Iterations 57
DILUPBiCG:  Solving for p, Initial residual = 0.00155692, Final residual = 9.08466e-09, No Iterations 54
max(mag(U)): 3.51956
max/min p: 101486/101325
diagonal:  Solving for rho, Initial residual = 0, Final residual = 0, No Iterations 0
rho max/min : 1.17782 / 1.17648
time step continuity errors : sum local = 1.052e-10, global = 5.90271e-13, cumulative = 9.66266e-12
max/min T: 300.144/300
DILUPBiCG:  Solving for p, Initial residual = 0.00219819, Final residual = 9.47787e-09, No Iterations 49
DILUPBiCG:  Solving for p, Initial residual = 0.000126251, Final residual = 4.69641e-09, No Iterations 45
max(mag(U)): 3.51883
max/min p: 101486/101325
diagonal:  Solving for rho, Initial residual = 0, Final residual = 0, No Iterations 0
rho max/min : 1.17782 / 1.17648
time step continuity errors : sum local = 5.4392e-11, global = -4.94369e-15, cumulative = 9.65772e-12
max/min Maf: 0.00917272/0
max/min MaFunction: 0.00917272/0
max/min FaceAcCourant: 369.487/2.28392
max/min kappa: 0.00142225/0
ExecutionTime = 1.16 s  ClockTime = 2 s

Mean and max Acoustic Courant Numbers = 9.64468 369.487
Courant Number mean: 0.0303628 max: 0.516236 velocity magnitude: 3.26198
deltaT = 2.91399e-06
Time = 3.97305e-05

DICPCG:  Solving for cellMotionUx, Initial residual = 8.40364e-06, Final residual = 7.28615e-09, No Iterations 17
Mesh Courant Number mean: 0.026177 max: 0.0739735
Marking cells with bad quality to limit pressure gradient
PIMPLE: iteration 1
diagonal:  Solving for rho, Initial residual = 0, Final residual = 0, No Iterations 0
rho max/min : 1.17774 / 1.17647
Creating matrix for fvOptions
DILUPBiCG:  Solving for Y.Liq, Initial residual = 0, Final residual = 0, No Iterations 0
Mass fraction min/max = 0/0
DILUPBiCG:  Solving for Ux, Initial residual = 0.0532255, Final residual = 2.11285e-11, No Iterations 3
DILUPBiCG:  Solving for Uy, Initial residual = 0.0196986, Final residual = 5.66634e-11, No Iterations 3
DILUPBiCG:  Solving for Uz, Initial residual = 0.105516, Final residual = 1.70994e-11, No Iterations 3
max(mag(U)): 3.64482
DILUPBiCG:  Solving for h, Initial residual = 0.0996353, Final residual = 8.59967e-11, No Iterations 3
max/min T: 300.127/300
DILUPBiCG:  Solving for p, Initial residual = 0.0252733, Final residual = 4.22844e-09, No Iterations 59
DILUPBiCG:  Solving for p, Initial residual = 0.00162799, Final residual = 6.58962e-09, No Iterations 55
max(mag(U)): 3.64772
max/min p: 101470/101325
diagonal:  Solving for rho, Initial residual = 0, Final residual = 0, No Iterations 0
rho max/min : 1.17766 / 1.17648
time step continuity errors : sum local = 6.04812e-11, global = -7.31387e-14, cumulative = 9.65772e-12
max/min T: 300.127/300
DILUPBiCG:  Solving for p, Initial residual = 0.00248682, Final residual = 7.97755e-09, No Iterations 49
DILUPBiCG:  Solving for p, Initial residual = 0.000155962, Final residual = 4.75426e-09, No Iterations 45
max(mag(U)): 3.64743
max/min p: 101470/101325
diagonal:  Solving for rho, Initial residual = 0, Final residual = 0, No Iterations 0
rho max/min : 1.17766 / 1.17648
time step continuity errors : sum local = 4.36611e-11, global = 1.92539e-13, cumulative = 9.85026e-12
max/min Maf: 0.00943754/0
max/min MaFunction: 0.00943754/0
max/min FaceAcCourant: 356.29/2.20417
max/min kappa: 0.00152569/0
ExecutionTime = 1.26 s  ClockTime = 2 s

Mean and max Acoustic Courant Numbers = 9.29289 356.29
Courant Number mean: 0.0309063 max: 0.515633 velocity magnitude: 3.35606
deltaT = 2.81175e-06
Time = 4.25423e-05

DICPCG:  Solving for cellMotionUx, Initial residual = 6.69445e-06, Final residual = 9.82194e-09, No Iterations 16
Mesh Courant Number mean: 0.025259 max: 0.0708648
Marking cells with bad quality to limit pressure gradient
PIMPLE: iteration 1
diagonal:  Solving for rho, Initial residual = 0, Final residual = 0, No Iterations 0
rho max/min : 1.1775 / 1.17647
Creating matrix for fvOptions
DILUPBiCG:  Solving for Y.Liq, Initial residual = 0, Final residual = 0, No Iterations 0
Mass fraction min/max = 0/0
DILUPBiCG:  Solving for Ux, Initial residual = 0.0461267, Final residual = 2.48367e-11, No Iterations 3
DILUPBiCG:  Solving for Uy, Initial residual = 0.0165282, Final residual = 6.98032e-11, No Iterations 3
DILUPBiCG:  Solving for Uz, Initial residual = 0.103151, Final residual = 1.3305e-11, No Iterations 3
max(mag(U)): 3.75483
DILUPBiCG:  Solving for h, Initial residual = 0.120866, Final residual = 9.84547e-11, No Iterations 3
max/min T: 300.114/300
DILUPBiCG:  Solving for p, Initial residual = 0.0326161, Final residual = 9.06693e-09, No Iterations 56
DILUPBiCG:  Solving for p, Initial residual = 0.00191905, Final residual = 7.61013e-09, No Iterations 53
max(mag(U)): 3.74174
max/min p: 101445/101325
diagonal:  Solving for rho, Initial residual = 0, Final residual = 0, No Iterations 0
rho max/min : 1.17742 / 1.17647
time step continuity errors : sum local = 5.37588e-11, global = 2.33898e-13, cumulative = 9.85026e-12
max/min T: 300.114/300
DILUPBiCG:  Solving for p, Initial residual = 0.00336952, Final residual = 4.59449e-09, No Iterations 54
DILUPBiCG:  Solving for p, Initial residual = 0.000189092, Final residual = 2.09802e-09, No Iterations 46
max(mag(U)): 3.74205
max/min p: 101445/101325
diagonal:  Solving for rho, Initial residual = 0, Final residual = 0, No Iterations 0
rho max/min : 1.17742 / 1.17647
time step continuity errors : sum local = 1.48184e-11, global = 1.2655e-13, cumulative = 9.97681e-12
max/min Maf: 0.00963297/0
max/min MaFunction: 0.00963297/0
max/min FaceAcCourant: 343.789/2.12854
max/min kappa: 0.00162425/0
ExecutionTime = 1.35 s  ClockTime = 2 s

Mean and max Acoustic Courant Numbers = 8.95995 343.789
Courant Number mean: 0.031061 max: 0.510188 velocity magnitude: 3.42546
deltaT = 2.71479e-06
Time = 4.52571e-05

DICPCG:  Solving for cellMotionUx, Initial residual = 5.83669e-06, Final residual = 5.34017e-09, No Iterations 17
Mesh Courant Number mean: 0.0243884 max: 0.0681105
Marking cells with bad quality to limit pressure gradient
PIMPLE: iteration 1
diagonal:  Solving for rho, Initial residual = 0, Final residual = 0, No Iterations 0
rho max/min : 1.1772 / 1.17647
Creating matrix for fvOptions
DILUPBiCG:  Solving for Y.Liq, Initial residual = 0, Final residual = 0, No Iterations 0
Mass fraction min/max = 0/0
DILUPBiCG:  Solving for Ux, Initial residual = 0.0365903, Final residual = 2.392e-11, No Iterations 3
DILUPBiCG:  Solving for Uy, Initial residual = 0.0133018, Final residual = 7.8191e-11, No Iterations 3
DILUPBiCG:  Solving for Uz, Initial residual = 0.0961888, Final residual = 3.28782e-11, No Iterations 3
max(mag(U)): 3.83296
DILUPBiCG:  Solving for h, Initial residual = 0.14808, Final residual = 1.07302e-10, No Iterations 3
max/min T: 300.095/299.999
DILUPBiCG:  Solving for p, Initial residual = 0.0442593, Final residual = 4.33758e-09, No Iterations 57
DILUPBiCG:  Solving for p, Initial residual = 0.00242922, Final residual = 2.51435e-09, No Iterations 52
max(mag(U)): 3.82357
max/min p: 101415/101324
diagonal:  Solving for rho, Initial residual = 0, Final residual = 0, No Iterations 0
rho max/min : 1.17715 / 1.17647
time step continuity errors : sum local = 1.29355e-11, global = 6.12614e-14, cumulative = 9.97681e-12
max/min T: 300.095/299.999
DILUPBiCG:  Solving for p, Initial residual = 0.00366142, Final residual = 2.16498e-09, No Iterations 52
DILUPBiCG:  Solving for p, Initial residual = 0.000211094, Final residual = 2.86451e-09, No Iterations 44
max(mag(U)): 3.82058
max/min p: 101415/101324
diagonal:  Solving for rho, Initial residual = 0, Final residual = 0, No Iterations 0
rho max/min : 1.17715 / 1.17647
time step continuity errors : sum local = 1.4721e-11, global = 2.05802e-13, cumulative = 1.01826e-11
max/min Maf: 0.00975615/0
max/min MaFunction: 0.00975615/0
max/min FaceAcCourant: 331.934/2.05669
max/min kappa: 0.00171264/0
ExecutionTime = 1.45 s  ClockTime = 2 s

Mean and max Acoustic Courant Numbers = 8.64456 331.934
Courant Number mean: 0.0308911 max: 0.500552 velocity magnitude: 3.46918
deltaT = 2.66798e-06
Time = 4.7925e-05

DICPCG:  Solving for cellMotionUx, Initial residual = 5.21981e-06, Final residual = 9.82263e-09, No Iterations 16
Mesh Courant Number mean: 0.0239683 max: 0.0666387
Marking cells with bad quality to limit pressure gradient
PIMPLE: iteration 1
diagonal:  Solving for rho, Initial residual = 0, Final residual = 0, No Iterations 0
rho max/min : 1.17689 / 1.17643
Creating matrix for fvOptions
DILUPBiCG:  Solving for Y.Liq, Initial residual = 0, Final residual = 0, No Iterations 0
Mass fraction min/max = 0/0
DILUPBiCG:  Solving for Ux, Initial residual = 0.0262654, Final residual = 1.37782e-11, No Iterations 3
DILUPBiCG:  Solving for Uy, Initial residual = 0.0104834, Final residual = 1.09597e-10, No Iterations 3
DILUPBiCG:  Solving for Uz, Initial residual = 0.0879498, Final residual = 3.3204e-11, No Iterations 3
max(mag(U)): 3.88706
DILUPBiCG:  Solving for h, Initial residual = 0.193608, Final residual = 1.34718e-10, No Iterations 3
max/min T: 300.072/299.999
DILUPBiCG:  Solving for p, Initial residual = 0.0593746, Final residual = 9.52536e-09, No Iterations 58
DILUPBiCG:  Solving for p, Initial residual = 0.00354224, Final residual = 4.06478e-09, No Iterations 51
max(mag(U)): 3.88615
max/min p: 101383/101324
diagonal:  Solving for rho, Initial residual = 0, Final residual = 0, No Iterations 0
rho max/min : 1.17687 / 1.17642
time step continuity errors : sum local = 1.44466e-11, global = 1.06829e-14, cumulative = 1.01826e-11
max/min T: 300.072/299.999
DILUPBiCG:  Solving for p, Initial residual = 0.00543644, Final residual = 5.39842e-09, No Iterations 52
DILUPBiCG:  Solving for p, Initial residual = 0.000280093, Final residual = 3.71e-09, No Iterations 44
max(mag(U)): 3.88429
max/min p: 101383/101324
diagonal:  Solving for rho, Initial residual = 0, Final residual = 0, No Iterations 0
rho max/min : 1.17687 / 1.17642
time step continuity errors : sum local = 1.31928e-11, global = 3.49455e-13, cumulative = 1.05321e-11
max/min Maf: 0.00980856/0
max/min MaFunction: 0.00980856/0
max/min FaceAcCourant: 326.211/2.02271
max/min kappa: 0.00175627/0
ExecutionTime = 1.55 s  ClockTime = 2 s

Mean and max Acoustic Courant Numbers = 8.48928 326.211
Courant Number mean: 0.0309834 max: 0.495859 velocity magnitude: 3.48773
deltaT = 2.66798e-06
Time = 5.0593e-05

DICPCG:  Solving for cellMotionUx, Initial residual = 4.89343e-06, Final residual = 4.74259e-09, No Iterations 17
Mesh Courant Number mean: 0.0239687 max: 0.066344
Marking cells with bad quality to limit pressure gradient
PIMPLE: iteration 1
diagonal:  Solving for rho, Initial residual = 0, Final residual = 0, No Iterations 0
rho max/min : 1.17663 / 1.17628
Creating matrix for fvOptions
DILUPBiCG:  Solving for Y.Liq, Initial residual = 0, Final residual = 0, No Iterations 0
Mass fraction min/max = 0/0
DILUPBiCG:  Solving for Ux, Initial residual = 0.0159949, Final residual = 1.16001e-11, No Iterations 3
DILUPBiCG:  Solving for Uy, Initial residual = 0.00762433, Final residual = 2.24729e-11, No Iterations 3
DILUPBiCG:  Solving for Uz, Initial residual = 0.0883398, Final residual = 1.79683e-11, No Iterations 3
max(mag(U)): 3.92752
DILUPBiCG:  Solving for h, Initial residual = 0.282996, Final residual = 2.15542e-10, No Iterations 3
max/min T: 300.054/299.999
DILUPBiCG:  Solving for p, Initial residual = 0.0813074, Final residual = 8.78636e-09, No Iterations 58
DILUPBiCG:  Solving for p, Initial residual = 0.0062623, Final residual = 4.00454e-09, No Iterations 57
max(mag(U)): 3.89504
max/min p: 101353/101317
diagonal:  Solving for rho, Initial residual = 0, Final residual = 0, No Iterations 0
rho max/min : 1.1766 / 1.17627
time step continuity errors : sum local = 8.25349e-12, global = -1.26021e-14, cumulative = 1.05321e-11
max/min T: 300.054/299.999
DILUPBiCG:  Solving for p, Initial residual = 0.00743495, Final residual = 8.59464e-09, No Iterations 49
DILUPBiCG:  Solving for p, Initial residual = 0.000392922, Final residual = 2.55835e-09, No Iterations 50
max(mag(U)): 3.89161
max/min p: 101353/101317
diagonal:  Solving for rho, Initial residual = 0, Final residual = 0, No Iterations 0
rho max/min : 1.1766 / 1.17627
time step continuity errors : sum local = 5.26478e-12, global = 2.0992e-14, cumulative = 1.05531e-11
max/min Maf: 0.00979883/0
max/min MaFunction: 0.00979883/0
max/min FaceAcCourant: 326.211/2.02418
max/min kappa: 0.00175577/0
ExecutionTime = 1.65 s  ClockTime = 2 s

Mean and max Acoustic Courant Numbers = 8.48302 326.211
Courant Number mean: 0.0313491 max: 0.498268 velocity magnitude: 3.48419
deltaT = 2.66798e-06
Time = 5.3261e-05

DICPCG:  Solving for cellMotionUx, Initial residual = 4.68203e-06, Final residual = 9.71263e-09, No Iterations 16
Mesh Courant Number mean: 0.0239691 max: 0.0660519
Marking cells with bad quality to limit pressure gradient
PIMPLE: iteration 1
diagonal:  Solving for rho, Initial residual = 0, Final residual = 0, No Iterations 0
rho max/min : 1.17653 / 1.17612
Creating matrix for fvOptions
DILUPBiCG:  Solving for Y.Liq, Initial residual = 0, Final residual = 0, No Iterations 0
Mass fraction min/max = 0/0
DILUPBiCG:  Solving for Ux, Initial residual = 0.0077415, Final residual = 1.83071e-11, No Iterations 3
DILUPBiCG:  Solving for Uy, Initial residual = 0.00493816, Final residual = 1.78648e-11, No Iterations 3
DILUPBiCG:  Solving for Uz, Initial residual = 0.0912725, Final residual = 2.7416e-11, No Iterations 3
max(mag(U)): 3.90137
DILUPBiCG:  Solving for h, Initial residual = 0.485104, Final residual = 4.05904e-10, No Iterations 3
max/min T: 300.034/299.999
DILUPBiCG:  Solving for p, Initial residual = 0.131305, Final residual = 5.80753e-09, No Iterations 57
DILUPBiCG:  Solving for p, Initial residual = 0.0202108, Final residual = 5.89883e-09, No Iterations 59
max(mag(U)): 3.88317
max/min p: 101329/101299
diagonal:  Solving for rho, Initial residual = 0, Final residual = 0, No Iterations 0
rho max/min : 1.17651 / 1.17611
time step continuity errors : sum local = 3.98016e-12, global = -2.23683e-14, cumulative = 1.05531e-11
max/min T: 300.034/299.999
DILUPBiCG:  Solving for p, Initial residual = 0.025202, Final residual = 8.77687e-09, No Iterations 55
DILUPBiCG:  Solving for p, Initial residual = 0.00142971, Final residual = 9.43275e-09, No Iterations 46
max(mag(U)): 3.88053
max/min p: 101329/101298
diagonal:  Solving for rho, Initial residual = 0, Final residual = 0, No Iterations 0
rho max/min : 1.17651 / 1.17611
time step continuity errors : sum local = 6.32638e-12, global = -1.00282e-14, cumulative = 1.0543e-11
max/min Maf: 0.00973428/0
max/min MaFunction: 0.00973428/0
max/min FaceAcCourant: 326.211/2.02563
max/min kappa: 0.00174229/0
ExecutionTime = 1.75 s  ClockTime = 2 s

Mean and max Acoustic Courant Numbers = 8.47672 326.211
Courant Number mean: 0.031432 max: 0.500031 velocity magnitude: 3.46115
deltaT = 2.62034e-06
Time = 5.58814e-05

DICPCG:  Solving for cellMotionUx, Initial residual = 4.56135e-06, Final residual = 4.58639e-09, No Iterations 17
Mesh Courant Number mean: 0.0235414 max: 0.0645934
Marking cells with bad quality to limit pressure gradient
PIMPLE: iteration 1
diagonal:  Solving for rho, Initial residual = 0, Final residual = 0, No Iterations 0
rho max/min : 1.17648 / 1.17595
Creating matrix for fvOptions
DILUPBiCG:  Solving for Y.Liq, Initial residual = 0, Final residual = 0, No Iterations 0
Mass fraction min/max = 0/0
DILUPBiCG:  Solving for Ux, Initial residual = 0.00687918, Final residual = 7.46539e-09, No Iterations 2
DILUPBiCG:  Solving for Uy, Initial residual = 0.0039243, Final residual = 4.49985e-11, No Iterations 3
DILUPBiCG:  Solving for Uz, Initial residual = 0.0842112, Final residual = 3.16939e-11, No Iterations 3
max(mag(U)): 3.87625
DILUPBiCG:  Solving for h, Initial residual = 0.686096, Final residual = 5.51683e-10, No Iterations 3
max/min T: 300.013/299.992
DILUPBiCG:  Solving for p, Initial residual = 0.349503, Final residual = 4.44411e-09, No Iterations 62
DILUPBiCG:  Solving for p, Initial residual = 0.00548972, Final residual = 4.42447e-09, No Iterations 54
max(mag(U)): 3.86495
max/min p: 101325/101279
diagonal:  Solving for rho, Initial residual = 0, Final residual = 0, No Iterations 0
rho max/min : 1.17648 / 1.17593
time step continuity errors : sum local = 9.25517e-12, global = 5.63951e-15, cumulative = 1.0543e-11
max/min T: 300.013/299.992
DILUPBiCG:  Solving for p, Initial residual = 0.00855749, Final residual = 2.53619e-09, No Iterations 54
DILUPBiCG:  Solving for p, Initial residual = 0.000492834, Final residual = 8.12559e-09, No Iterations 49
max(mag(U)): 3.86396
max/min p: 101325/101279
diagonal:  Solving for rho, Initial residual = 0, Final residual = 0, No Iterations 0
rho max/min : 1.17648 / 1.17593
time step continuity errors : sum local = 1.6962e-11, global = -4.68365e-14, cumulative = 1.04962e-11
max/min Maf: 0.00961413/0
max/min MaFunction: 0.00961413/0
max/min FaceAcCourant: 320.386/1.99087
max/min kappa: 0.00174468/0
ExecutionTime = 1.86 s  ClockTime = 2 s

Mean and max Acoustic Courant Numbers = 8.31924 320.386
Courant Number mean: 0.0306655 max: 0.490055 velocity magnitude: 3.41833
deltaT = 2.66886e-06
Time = 5.85502e-05

DICPCG:  Solving for cellMotionUx, Initial residual = 4.42106e-06, Final residual = 9.68973e-09, No Iterations 16
Mesh Courant Number mean: 0.0239778 max: 0.0655024
Marking cells with bad quality to limit pressure gradient
PIMPLE: iteration 1
diagonal:  Solving for rho, Initial residual = 0, Final residual = 0, No Iterations 0
rho max/min : 1.17648 / 1.17576
Creating matrix for fvOptions
DILUPBiCG:  Solving for Y.Liq, Initial residual = 0, Final residual = 0, No Iterations 0
Mass fraction min/max = 0/0
DILUPBiCG:  Solving for Ux, Initial residual = 0.0113822, Final residual = 7.89608e-09, No Iterations 2
DILUPBiCG:  Solving for Uy, Initial residual = 0.00521861, Final residual = 6.88605e-09, No Iterations 2
DILUPBiCG:  Solving for Uz, Initial residual = 0.0889075, Final residual = 1.22092e-10, No Iterations 3
max(mag(U)): 3.82519
DILUPBiCG:  Solving for h, Initial residual = 0.804523, Final residual = 7.3037e-10, No Iterations 3
max/min T: 300/299.968
DILUPBiCG:  Solving for p, Initial residual = 0.113022, Final residual = 3.09546e-09, No Iterations 59
DILUPBiCG:  Solving for p, Initial residual = 0.00301959, Final residual = 6.35462e-09, No Iterations 56
max(mag(U)): 3.81618
max/min p: 101325/101259
diagonal:  Solving for rho, Initial residual = 0, Final residual = 0, No Iterations 0
rho max/min : 1.17648 / 1.17577
time step continuity errors : sum local = 2.31073e-11, global = -1.56762e-13, cumulative = 1.04962e-11
max/min T: 300/299.968
DILUPBiCG:  Solving for p, Initial residual = 0.00442144, Final residual = 6.15702e-09, No Iterations 51
DILUPBiCG:  Solving for p, Initial residual = 0.000276907, Final residual = 5.10524e-09, No Iterations 44
max(mag(U)): 3.81609
max/min p: 101325/101259
diagonal:  Solving for rho, Initial residual = 0, Final residual = 0, No Iterations 0
rho max/min : 1.17648 / 1.17576
time step continuity errors : sum local = 1.85492e-11, global = -1.76062e-13, cumulative = 1.03201e-11
max/min Maf: 0.00945146/0
max/min MaFunction: 0.00945146/0
max/min FaceAcCourant: 326.319/2.02921
max/min kappa: 0.00166413/0
ExecutionTime = 1.96 s  ClockTime = 2 s

Mean and max Acoustic Courant Numbers = 8.46692 326.319
Courant Number mean: 0.0307026 max: 0.493923 velocity magnitude: 3.36039
deltaT = 2.66886e-06
Time = 6.12191e-05

DICPCG:  Solving for cellMotionUx, Initial residual = 4.39168e-06, Final residual = 9.92263e-09, No Iterations 16
Mesh Courant Number mean: 0.0239782 max: 0.0652181
Marking cells with bad quality to limit pressure gradient
PIMPLE: iteration 1
diagonal:  Solving for rho, Initial residual = 0, Final residual = 0, No Iterations 0
rho max/min : 1.17648 / 1.17559
Creating matrix for fvOptions
DILUPBiCG:  Solving for Y.Liq, Initial residual = 0, Final residual = 0, No Iterations 0
Mass fraction min/max = 0/0
DILUPBiCG:  Solving for Ux, Initial residual = 0.0187929, Final residual = 6.26847e-09, No Iterations 2
DILUPBiCG:  Solving for Uy, Initial residual = 0.00712586, Final residual = 1.24295e-10, No Iterations 3
DILUPBiCG:  Solving for Uz, Initial residual = 0.0823568, Final residual = 2.98323e-11, No Iterations 3
max(mag(U)): 3.75516
DILUPBiCG:  Solving for h, Initial residual = 0.469997, Final residual = 4.12921e-10, No Iterations 3
max/min T: 300/299.948
DILUPBiCG:  Solving for p, Initial residual = 0.0680048, Final residual = 9.48718e-09, No Iterations 57
DILUPBiCG:  Solving for p, Initial residual = 0.00196153, Final residual = 6.33677e-09, No Iterations 51
max(mag(U)): 3.7391
max/min p: 101325/101240
diagonal:  Solving for rho, Initial residual = 0, Final residual = 0, No Iterations 0
rho max/min : 1.17648 / 1.17561
time step continuity errors : sum local = 3.20483e-11, global = -1.67322e-14, cumulative = 1.03201e-11
max/min T: 300/299.948
DILUPBiCG:  Solving for p, Initial residual = 0.00340337, Final residual = 7.12517e-09, No Iterations 51
DILUPBiCG:  Solving for p, Initial residual = 0.000177192, Final residual = 6.62049e-09, No Iterations 44
max(mag(U)): 3.73766
max/min p: 101325/101240
diagonal:  Solving for rho, Initial residual = 0, Final residual = 0, No Iterations 0
rho max/min : 1.17648 / 1.17561
time step continuity errors : sum local = 3.34421e-11, global = -2.72767e-13, cumulative = 1.00474e-11
max/min Maf: 0.00927145/0
max/min MaFunction: 0.00927145/0
max/min FaceAcCourant: 326.319/2.03069
max/min kappa: 0.00162404/0
ExecutionTime = 2.06 s  ClockTime = 2 s

Mean and max Acoustic Courant Numbers = 8.46051 326.319
Courant Number mean: 0.0298639 max: 0.487488 velocity magnitude: 3.2963
deltaT = 2.72119e-06
Time = 6.39403e-05

DICPCG:  Solving for cellMotionUx, Initial residual = 4.34849e-06, Final residual = 9.73864e-09, No Iterations 16
Mesh Courant Number mean: 0.0244488 max: 0.0662717
Marking cells with bad quality to limit pressure gradient
PIMPLE: iteration 1
diagonal:  Solving for rho, Initial residual = 0, Final residual = 0, No Iterations 0
rho max/min : 1.17647 / 1.17545
Creating matrix for fvOptions
DILUPBiCG:  Solving for Y.Liq, Initial residual = 0, Final residual = 0, No Iterations 0
Mass fraction min/max = 0/0
DILUPBiCG:  Solving for Ux, Initial residual = 0.0268101, Final residual = 6.43284e-09, No Iterations 2
DILUPBiCG:  Solving for Uy, Initial residual = 0.00910091, Final residual = 2.55926e-11, No Iterations 3
DILUPBiCG:  Solving for Uz, Initial residual = 0.0831669, Final residual = 4.63548e-11, No Iterations 3
max(mag(U)): 3.6534
DILUPBiCG:  Solving for h, Initial residual = 0.308743, Final residual = 2.85376e-10, No Iterations 3
max/min T: 300/299.929
DILUPBiCG:  Solving for p, Initial residual = 0.0457403, Final residual = 1.84868e-09, No Iterations 58
DILUPBiCG:  Solving for p, Initial residual = 0.00153254, Final residual = 5.84958e-09, No Iterations 53
max(mag(U)): 3.63809
max/min p: 101325/101222
diagonal:  Solving for rho, Initial residual = 0, Final residual = 0, No Iterations 0
rho max/min : 1.17647 / 1.17548
time step continuity errors : sum local = 3.85064e-11, global = 4.96287e-14, cumulative = 1.00474e-11
max/min T: 300/299.929
DILUPBiCG:  Solving for p, Initial residual = 0.00266368, Final residual = 4.3875e-09, No Iterations 53
DILUPBiCG:  Solving for p, Initial residual = 0.000164465, Final residual = 9.2981e-09, No Iterations 44
max(mag(U)): 3.63612
max/min p: 101325/101222
diagonal:  Solving for rho, Initial residual = 0, Final residual = 0, No Iterations 0
rho max/min : 1.17647 / 1.17548
time step continuity errors : sum local = 6.11708e-11, global = -1.25049e-13, cumulative = 9.92231e-12
max/min Maf: 0.0090814/0
max/min MaFunction: 0.0090814/0
max/min FaceAcCourant: 332.717/2.07207
max/min kappa: 0.0015493/0
ExecutionTime = 2.16 s  ClockTime = 3 s

Mean and max Acoustic Courant Numbers = 8.61973 332.717
Courant Number mean: 0.0292717 max: 0.48963 velocity magnitude: 3.22864
deltaT = 2.77673e-06
Time = 6.6717e-05

DICPCG:  Solving for cellMotionUx, Initial residual = 4.35794e-06, Final residual = 4.4545e-09, No Iterations 17
Mesh Courant Number mean: 0.0249481 max: 0.0676269
Marking cells with bad quality to limit pressure gradient
PIMPLE: iteration 1
diagonal:  Solving for rho, Initial residual = 0, Final residual = 0, No Iterations 0
rho max/min : 1.17647 / 1.17534
Creating matrix for fvOptions
DILUPBiCG:  Solving for Y.Liq, Initial residual = 0, Final residual = 0, No Iterations 0
Mass fraction min/max = 0/0
DILUPBiCG:  Solving for Ux, Initial residual = 0.0355106, Final residual = 1.82658e-11, No Iterations 3
DILUPBiCG:  Solving for Uy, Initial residual = 0.0111443, Final residual = 3.09899e-11, No Iterations 3
DILUPBiCG:  Solving for Uz, Initial residual = 0.0856652, Final residual = 5.9405e-11, No Iterations 3
max(mag(U)): 3.53338
DILUPBiCG:  Solving for h, Initial residual = 0.222802, Final residual = 2.05627e-10, No Iterations 3
max/min T: 300/299.912
DILUPBiCG:  Solving for p, Initial residual = 0.0350296, Final residual = 7.68507e-09, No Iterations 56
DILUPBiCG:  Solving for p, Initial residual = 0.00125915, Final residual = 8.57226e-09, No Iterations 49
max(mag(U)): 3.51084
max/min p: 101325/101204
diagonal:  Solving for rho, Initial residual = 0, Final residual = 0, No Iterations 0
rho max/min : 1.17647 / 1.17537
time step continuity errors : sum local = 6.87353e-11, global = 4.59749e-13, cumulative = 9.92231e-12
max/min T: 300/299.912
DILUPBiCG:  Solving for p, Initial residual = 0.00222853, Final residual = 3.70328e-09, No Iterations 50
DILUPBiCG:  Solving for p, Initial residual = 0.00012937, Final residual = 6.1073e-09, No Iterations 43
max(mag(U)): 3.50877
max/min p: 101325/101204
diagonal:  Solving for rho, Initial residual = 0, Final residual = 0, No Iterations 0
rho max/min : 1.17647 / 1.17537
time step continuity errors : sum local = 4.89347e-11, global = 8.31684e-13, cumulative = 1.0754e-11
max/min Maf: 0.0088702/0
max/min MaFunction: 0.0088702/0
max/min FaceAcCourant: 339.507/2.11598
max/min kappa: 0.00146589/0
ExecutionTime = 2.26 s  ClockTime = 3 s

Mean and max Acoustic Courant Numbers = 8.78869 339.507
Courant Number mean: 0.0283777 max: 0.490297 velocity magnitude: 3.15347
deltaT = 2.77673e-06
Time = 6.94937e-05

DICPCG:  Solving for cellMotionUx, Initial residual = 4.38714e-06, Final residual = 9.75234e-09, No Iterations 16
Mesh Courant Number mean: 0.0249486 max: 0.0676297
Marking cells with bad quality to limit pressure gradient
PIMPLE: iteration 1
diagonal:  Solving for rho, Initial residual = 0, Final residual = 0, No Iterations 0
rho max/min : 1.17647 / 1.17527
Creating matrix for fvOptions
DILUPBiCG:  Solving for Y.Liq, Initial residual = 0, Final residual = 0, No Iterations 0
Mass fraction min/max = 0/0
DILUPBiCG:  Solving for Ux, Initial residual = 0.0439751, Final residual = 3.17214e-11, No Iterations 3
DILUPBiCG:  Solving for Uy, Initial residual = 0.0128915, Final residual = 9.27686e-11, No Iterations 3
DILUPBiCG:  Solving for Uz, Initial residual = 0.0860483, Final residual = 3.74245e-11, No Iterations 3
max(mag(U)): 3.38774
DILUPBiCG:  Solving for h, Initial residual = 0.16041, Final residual = 1.37117e-10, No Iterations 3
max/min T: 300/299.897
DILUPBiCG:  Solving for p, Initial residual = 0.0265897, Final residual = 3.69428e-09, No Iterations 56
DILUPBiCG:  Solving for p, Initial residual = 0.00100825, Final residual = 4.42551e-09, No Iterations 53
max(mag(U)): 3.36913
max/min p: 101325/101189
diagonal:  Solving for rho, Initial residual = 0, Final residual = 0, No Iterations 0
rho max/min : 1.17647 / 1.1753
time step continuity errors : sum local = 3.95899e-11, global = 9.49227e-14, cumulative = 1.0754e-11
max/min T: 300/299.897
DILUPBiCG:  Solving for p, Initial residual = 0.0018406, Final residual = 5.87651e-09, No Iterations 50
DILUPBiCG:  Solving for p, Initial residual = 8.61817e-05, Final residual = 6.72104e-09, No Iterations 42
max(mag(U)): 3.36647
max/min p: 101325/101189
diagonal:  Solving for rho, Initial residual = 0, Final residual = 0, No Iterations 0
rho max/min : 1.17647 / 1.1753
time step continuity errors : sum local = 6.00865e-11, global = 6.33158e-13, cumulative = 1.13872e-11
max/min Maf: 0.00864472/0
max/min MaFunction: 0.00864472/0
max/min FaceAcCourant: 339.507/2.11763
max/min kappa: 0.00140697/0
ExecutionTime = 2.36 s  ClockTime = 3 s

Mean and max Acoustic Courant Numbers = 8.78176 339.507
Courant Number mean: 0.0266873 max: 0.479386 velocity magnitude: 3.07324
deltaT = 2.83709e-06
Time = 7.23308e-05

DICPCG:  Solving for cellMotionUx, Initial residual = 4.37468e-06, Final residual = 4.66138e-09, No Iterations 17
Mesh Courant Number mean: 0.0254914 max: 0.0691028
Marking cells with bad quality to limit pressure gradient
PIMPLE: iteration 1
diagonal:  Solving for rho, Initial residual = 0, Final residual = 0, No Iterations 0
rho max/min : 1.17647 / 1.17518
Creating matrix for fvOptions
DILUPBiCG:  Solving for Y.Liq, Initial residual = 0, Final residual = 0, No Iterations 0
Mass fraction min/max = 0/0
DILUPBiCG:  Solving for Ux, Initial residual = 0.0535188, Final residual = 2.47392e-11, No Iterations 3
DILUPBiCG:  Solving for Uy, Initial residual = 0.0148176, Final residual = 4.08561e-10, No Iterations 3
DILUPBiCG:  Solving for Uz, Initial residual = 0.0875982, Final residual = 3.445e-11, No Iterations 3
max(mag(U)): 3.23281
DILUPBiCG:  Solving for h, Initial residual = 0.113977, Final residual = 9.55596e-11, No Iterations 3
max/min T: 300/299.884
DILUPBiCG:  Solving for p, Initial residual = 0.0213743, Final residual = 1.86792e-09, No Iterations 59
DILUPBiCG:  Solving for p, Initial residual = 0.00115339, Final residual = 8.55538e-09, No Iterations 53
max(mag(U)): 3.22733
max/min p: 101325/101177
diagonal:  Solving for rho, Initial residual = 0, Final residual = 0, No Iterations 0
rho max/min : 1.17647 / 1.17521
time step continuity errors : sum local = 8.51986e-11, global = 3.94111e-13, cumulative = 1.13872e-11
max/min T: 300/299.884
DILUPBiCG:  Solving for p, Initial residual = 0.00156381, Final residual = 6.64625e-09, No Iterations 49
DILUPBiCG:  Solving for p, Initial residual = 8.99017e-05, Final residual = 6.86002e-09, No Iterations 45
max(mag(U)): 3.2254
max/min p: 101325/101177
diagonal:  Solving for rho, Initial residual = 0, Final residual = 0, No Iterations 0
rho max/min : 1.17647 / 1.17521
time step continuity errors : sum local = 6.83385e-11, global = -2.27054e-13, cumulative = 1.11601e-11
max/min Maf: 0.00842104/0
max/min MaFunction: 0.00842104/0
max/min FaceAcCourant: 346.887/2.16542
max/min kappa: 0.00130975/0
ExecutionTime = 2.46 s  ClockTime = 3 s

Mean and max Acoustic Courant Numbers = 8.96548 346.887
Courant Number mean: 0.0253644 max: 0.477392 velocity magnitude: 2.99367
deltaT = 2.96905e-06
Time = 7.52999e-05

DICPCG:  Solving for cellMotionUx, Initial residual = 4.40064e-06, Final residual = 9.92981e-09, No Iterations 16
Mesh Courant Number mean: 0.0266775 max: 0.07232
Marking cells with bad quality to limit pressure gradient
PIMPLE: iteration 1
diagonal:  Solving for rho, Initial residual = 0, Final residual = 0, No Iterations 0
rho max/min : 1.17647 / 1.17513
Creating matrix for fvOptions
DILUPBiCG:  Solving for Y.Liq, Initial residual = 0, Final residual = 0, No Iterations 0
Mass fraction min/max = 0/0
DILUPBiCG:  Solving for Ux, Initial residual = 0.0642281, Final residual = 3.92308e-11, No Iterations 3
DILUPBiCG:  Solving for Uy, Initial residual = 0.0170535, Final residual = 1.40999e-10, No Iterations 3
DILUPBiCG:  Solving for Uz, Initial residual = 0.0904743, Final residual = 9.0669e-09, No Iterations 2
max(mag(U)): 3.08563
DILUPBiCG:  Solving for h, Initial residual = 0.0750856, Final residual = 7.48668e-11, No Iterations 3
max/min T: 300/299.875
DILUPBiCG:  Solving for p, Initial residual = 0.0205548, Final residual = 9.73999e-09, No Iterations 58
DILUPBiCG:  Solving for p, Initial residual = 0.0013503, Final residual = 7.41699e-09, No Iterations 55
max(mag(U)): 3.07702
max/min p: 101325/101170
diagonal:  Solving for rho, Initial residual = 0, Final residual = 0, No Iterations 0
rho max/min : 1.17647 / 1.17517
time step continuity errors : sum local = 8.31351e-11, global = -1.70528e-13, cumulative = 1.11601e-11
max/min T: 300/299.875
DILUPBiCG:  Solving for p, Initial residual = 0.00139392, Final residual = 1.20638e-09, No Iterations 55
DILUPBiCG:  Solving for p, Initial residual = 9.32334e-05, Final residual = 7.79134e-09, No Iterations 46
max(mag(U)): 3.07711
max/min p: 101325/101170
diagonal:  Solving for rho, Initial residual = 0, Final residual = 0, No Iterations 0
rho max/min : 1.17647 / 1.17517
time step continuity errors : sum local = 8.73148e-11, global = 4.26219e-13, cumulative = 1.15863e-11
max/min Maf: 0.00813503/0
max/min MaFunction: 0.00813503/0
max/min FaceAcCourant: 363.021/2.26806
max/min kappa: 0.00117797/0
ExecutionTime = 2.56 s  ClockTime = 3 s

Mean and max Acoustic Courant Numbers = 9.3747 363.021
Courant Number mean: 0.0244371 max: 0.483192 velocity magnitude: 2.89195
deltaT = 3.04147e-06
Time = 7.83413e-05

DICPCG:  Solving for cellMotionUx, Initial residual = 4.51927e-06, Final residual = 4.79523e-09, No Iterations 17
Mesh Courant Number mean: 0.0273287 max: 0.0740873
Marking cells with bad quality to limit pressure gradient
PIMPLE: iteration 1
diagonal:  Solving for rho, Initial residual = 0, Final residual = 0, No Iterations 0
rho max/min : 1.17647 / 1.17512
Creating matrix for fvOptions
DILUPBiCG:  Solving for Y.Liq, Initial residual = 0, Final residual = 0, No Iterations 0
Mass fraction min/max = 0/0
DILUPBiCG:  Solving for Ux, Initial residual = 0.0736827, Final residual = 2.63125e-11, No Iterations 3
DILUPBiCG:  Solving for Uy, Initial residual = 0.0195982, Final residual = 2.86685e-11, No Iterations 3
DILUPBiCG:  Solving for Uz, Initial residual = 0.0914486, Final residual = 3.38222e-11, No Iterations 3
max(mag(U)): 2.93641
DILUPBiCG:  Solving for h, Initial residual = 0.0372413, Final residual = 3.59393e-11, No Iterations 3
max/min T: 300/299.868
DILUPBiCG:  Solving for p, Initial residual = 0.0182674, Final residual = 6.64085e-09, No Iterations 55
DILUPBiCG:  Solving for p, Initial residual = 0.00123163, Final residual = 2.97922e-09, No Iterations 56
max(mag(U)): 2.94396
max/min p: 101325/101168
diagonal:  Solving for rho, Initial residual = 0, Final residual = 0, No Iterations 0
rho max/min : 1.17647 / 1.17516
time step continuity errors : sum local = 3.46679e-11, global = -1.493e-13, cumulative = 1.15863e-11
max/min T: 300/299.868
DILUPBiCG:  Solving for p, Initial residual = 0.00148732, Final residual = 4.30741e-09, No Iterations 55
DILUPBiCG:  Solving for p, Initial residual = 9.23282e-05, Final residual = 5.00707e-09, No Iterations 44
max(mag(U)): 2.94206
max/min p: 101325/101168
diagonal:  Solving for rho, Initial residual = 0, Final residual = 0, No Iterations 0
rho max/min : 1.17647 / 1.17516
time step continuity errors : sum local = 5.82345e-11, global = -6.96558e-13, cumulative = 1.08898e-11
max/min Maf: 0.00777818/0
max/min MaFunction: 0.00777818/0
max/min FaceAcCourant: 371.876/2.32543
max/min kappa: 0.00108336/0
ExecutionTime = 2.65 s  ClockTime = 3 s

Mean and max Acoustic Courant Numbers = 9.59533 371.876
Courant Number mean: 0.0229487 max: 0.480966 velocity magnitude: 2.76508
deltaT = 3.11945e-06
Time = 8.14608e-05

DICPCG:  Solving for cellMotionUx, Initial residual = 4.59949e-06, Final residual = 4.8346e-09, No Iterations 17
Mesh Courant Number mean: 0.02803 max: 0.0759905
Marking cells with bad quality to limit pressure gradient
PIMPLE: iteration 1
diagonal:  Solving for rho, Initial residual = 0, Final residual = 0, No Iterations 0
rho max/min : 1.17647 / 1.17516
Creating matrix for fvOptions
DILUPBiCG:  Solving for Y.Liq, Initial residual = 0, Final residual = 0, No Iterations 0
Mass fraction min/max = 0/0
DILUPBiCG:  Solving for Ux, Initial residual = 0.082749, Final residual = 3.57668e-10, No Iterations 3
DILUPBiCG:  Solving for Uy, Initial residual = 0.0210914, Final residual = 7.95803e-11, No Iterations 3
DILUPBiCG:  Solving for Uz, Initial residual = 0.093394, Final residual = 2.66634e-10, No Iterations 3
max(mag(U)): 2.81692
DILUPBiCG:  Solving for h, Initial residual = 0.0133499, Final residual = 2.2396e-09, No Iterations 2
max/min T: 300/299.866
DILUPBiCG:  Solving for p, Initial residual = 0.0159858, Final residual = 8.25627e-09, No Iterations 55
DILUPBiCG:  Solving for p, Initial residual = 0.000847724, Final residual = 8.04491e-10, No Iterations 57
max(mag(U)): 2.81757
max/min p: 101325/101171
diagonal:  Solving for rho, Initial residual = 0, Final residual = 0, No Iterations 0
rho max/min : 1.17647 / 1.17521
time step continuity errors : sum local = 9.44008e-12, global = 2.85537e-14, cumulative = 1.08898e-11
max/min T: 300/299.866
DILUPBiCG:  Solving for p, Initial residual = 0.00115165, Final residual = 3.82215e-09, No Iterations 51
DILUPBiCG:  Solving for p, Initial residual = 6.47926e-05, Final residual = 3.65903e-09, No Iterations 47
max(mag(U)): 2.81818
max/min p: 101325/101171
diagonal:  Solving for rho, Initial residual = 0, Final residual = 0, No Iterations 0
rho max/min : 1.17647 / 1.17521
time step continuity errors : sum local = 4.28533e-11, global = -1.67465e-13, cumulative = 1.07223e-11
max/min Maf: 0.00742537/0
max/min MaFunction: 0.00742537/0
max/min FaceAcCourant: 381.411/2.38722
max/min kappa: 0.00100343/0
ExecutionTime = 2.75 s  ClockTime = 3 s

Mean and max Acoustic Courant Numbers = 9.8331 381.411
Courant Number mean: 0.0216282 max: 0.477219 velocity magnitude: 2.63966
deltaT = 3.20376e-06
Time = 8.46646e-05

DICPCG:  Solving for cellMotionUx, Initial residual = 4.67422e-06, Final residual = 4.48074e-09, No Iterations 17
Mesh Courant Number mean: 0.0287882 max: 0.078048
Marking cells with bad quality to limit pressure gradient
PIMPLE: iteration 1
diagonal:  Solving for rho, Initial residual = 0, Final residual = 0, No Iterations 0
rho max/min : 1.17647 / 1.17526
Creating matrix for fvOptions
DILUPBiCG:  Solving for Y.Liq, Initial residual = 0, Final residual = 0, No Iterations 0
Mass fraction min/max = 0/0
DILUPBiCG:  Solving for Ux, Initial residual = 0.0897499, Final residual = 5.55896e-11, No Iterations 3
DILUPBiCG:  Solving for Uy, Initial residual = 0.0222026, Final residual = 7.76486e-11, No Iterations 3
DILUPBiCG:  Solving for Uz, Initial residual = 0.085528, Final residual = 1.31485e-10, No Iterations 3
max(mag(U)): 2.80923
DILUPBiCG:  Solving for h, Initial residual = 0.0318825, Final residual = 3.01875e-11, No Iterations 3
max/min T: 300/299.869
DILUPBiCG:  Solving for p, Initial residual = 0.0184975, Final residual = 8.85943e-09, No Iterations 57
DILUPBiCG:  Solving for p, Initial residual = 0.000973512, Final residual = 5.41469e-09, No Iterations 55
max(mag(U)): 2.7875
max/min p: 101325/101181
diagonal:  Solving for rho, Initial residual = 0, Final residual = 0, No Iterations 0
rho max/min : 1.17647 / 1.17532
time step continuity errors : sum local = 6.164e-11, global = -1.15757e-12, cumulative = 1.07223e-11
max/min T: 300/299.869
DILUPBiCG:  Solving for p, Initial residual = 0.00126443, Final residual = 8.4729e-09, No Iterations 50
DILUPBiCG:  Solving for p, Initial residual = 6.66321e-05, Final residual = 9.97147e-09, No Iterations 45
max(mag(U)): 2.78786
max/min p: 101325/101181
diagonal:  Solving for rho, Initial residual = 0, Final residual = 0, No Iterations 0
rho max/min : 1.17647 / 1.17532
time step continuity errors : sum local = 1.135e-10, global = -9.9195e-14, cumulative = 1.06231e-11
max/min Maf: 0.00708126/0
max/min MaFunction: 0.00708126/0
max/min FaceAcCourant: 391.719/2.45408
max/min kappa: 0.000924553/0
ExecutionTime = 2.85 s  ClockTime = 3 s

Mean and max Acoustic Courant Numbers = 10.0904 391.719
Courant Number mean: 0.0208205 max: 0.472689 velocity magnitude: 2.51735
deltaT = 3.2953e-06
Time = 8.79599e-05

DICPCG:  Solving for cellMotionUx, Initial residual = 4.7541e-06, Final residual = 5.03883e-09, No Iterations 17
Mesh Courant Number mean: 0.0296113 max: 0.0802818
Marking cells with bad quality to limit pressure gradient
PIMPLE: iteration 1
diagonal:  Solving for rho, Initial residual = 0, Final residual = 0, No Iterations 0
rho max/min : 1.17647 / 1.17542
Creating matrix for fvOptions
DILUPBiCG:  Solving for Y.Liq, Initial residual = 0, Final residual = 0, No Iterations 0
Mass fraction min/max = 0/0
DILUPBiCG:  Solving for Ux, Initial residual = 0.0934848, Final residual = 5.98462e-11, No Iterations 3
DILUPBiCG:  Solving for Uy, Initial residual = 0.0226266, Final residual = 1.26505e-10, No Iterations 3
DILUPBiCG:  Solving for Uz, Initial residual = 0.0900988, Final residual = 1.99914e-11, No Iterations 3
max(mag(U)): 3.0313
DILUPBiCG:  Solving for h, Initial residual = 0.0687503, Final residual = 6.056e-11, No Iterations 3
max/min T: 300/299.878
DILUPBiCG:  Solving for p, Initial residual = 0.0213404, Final residual = 9.31758e-09, No Iterations 57
DILUPBiCG:  Solving for p, Initial residual = 0.00104491, Final residual = 5.56434e-09, No Iterations 56
max(mag(U)): 3
max/min p: 101325/101197
diagonal:  Solving for rho, Initial residual = 0, Final residual = 0, No Iterations 0
rho max/min : 1.17647 / 1.17547
time step continuity errors : sum local = 5.89277e-11, global = -5.47213e-13, cumulative = 1.06231e-11
max/min T: 300/299.878
DILUPBiCG:  Solving for p, Initial residual = 0.00131997, Final residual = 4.44027e-09, No Iterations 52
DILUPBiCG:  Solving for p, Initial residual = 7.09099e-05, Final residual = 3.33536e-09, No Iterations 45
max(mag(U)): 2.99883
max/min p: 101325/101197
diagonal:  Solving for rho, Initial residual = 0, Final residual = 0, No Iterations 0
rho max/min : 1.17647 / 1.17547
time step continuity errors : sum local = 3.53288e-11, global = -2.23924e-12, cumulative = 8.38386e-12
max/min Maf: 0.00676217/0
max/min MaFunction: 0.00676217/0
max/min FaceAcCourant: 402.911/2.52668
max/min kappa: 0.000847018/0
ExecutionTime = 2.95 s  ClockTime = 3 s

Mean and max Acoustic Courant Numbers = 10.3701 402.911
Courant Number mean: 0.0208894 max: 0.468148 velocity magnitude: 2.40395
deltaT = 3.50125e-06
Time = 9.14611e-05

DICPCG:  Solving for cellMotionUx, Initial residual = 4.841e-06, Final residual = 4.80952e-09, No Iterations 17
Mesh Courant Number mean: 0.0314627 max: 0.0853038
Marking cells with bad quality to limit pressure gradient
PIMPLE: iteration 1
diagonal:  Solving for rho, Initial residual = 0, Final residual = 0, No Iterations 0
rho max/min : 1.17648 / 1.17564
Creating matrix for fvOptions
DILUPBiCG:  Solving for Y.Liq, Initial residual = 0, Final residual = 0, No Iterations 0
Mass fraction min/max = 0/0
DILUPBiCG:  Solving for Ux, Initial residual = 0.0952221, Final residual = 8.32766e-11, No Iterations 3
DILUPBiCG:  Solving for Uy, Initial residual = 0.0225896, Final residual = 1.84114e-10, No Iterations 3
DILUPBiCG:  Solving for Uz, Initial residual = 0.0903514, Final residual = 1.01893e-10, No Iterations 3
max(mag(U)): 3.19915
DILUPBiCG:  Solving for h, Initial residual = 0.118296, Final residual = 1.25148e-10, No Iterations 3
max/min T: 300/299.892
DILUPBiCG:  Solving for p, Initial residual = 0.0230876, Final residual = 7.56786e-09, No Iterations 59
DILUPBiCG:  Solving for p, Initial residual = 0.00137047, Final residual = 1.34919e-09, No Iterations 63
max(mag(U)): 3.14783
max/min p: 101325/101221
diagonal:  Solving for rho, Initial residual = 0, Final residual = 0, No Iterations 0
rho max/min : 1.17647 / 1.17569
time step continuity errors : sum local = 1.31847e-11, global = -8.59743e-15, cumulative = 8.38386e-12
max/min T: 300/299.892
DILUPBiCG:  Solving for p, Initial residual = 0.00145873, Final residual = 9.48362e-09, No Iterations 51
DILUPBiCG:  Solving for p, Initial residual = 7.45959e-05, Final residual = 3.44979e-09, No Iterations 47
max(mag(U)): 3.14759
max/min p: 101325/101221
diagonal:  Solving for rho, Initial residual = 0, Final residual = 0, No Iterations 0
rho max/min : 1.17647 / 1.17569
time step continuity errors : sum local = 3.3585e-11, global = 4.41068e-13, cumulative = 8.82492e-12
max/min Maf: 0.00648413/0
max/min MaFunction: 0.00648413/0
max/min FaceAcCourant: 428.093/2.68744
max/min kappa: 0.000756208/0
ExecutionTime = 3.05 s  ClockTime = 3 s

Mean and max Acoustic Courant Numbers = 11.0088 428.093
Courant Number mean: 0.0219883 max: 0.479977 velocity magnitude: 2.30515
deltaT = 3.61796e-06
Time = 9.50791e-05

DICPCG:  Solving for cellMotionUx, Initial residual = 5.03419e-06, Final residual = 5.0637e-09, No Iterations 17
Mesh Courant Number mean: 0.0325122 max: 0.088152
Marking cells with bad quality to limit pressure gradient
PIMPLE: iteration 1
diagonal:  Solving for rho, Initial residual = 0, Final residual = 0, No Iterations 0
rho max/min : 1.17648 / 1.17588
Creating matrix for fvOptions
DILUPBiCG:  Solving for Y.Liq, Initial residual = 0, Final residual = 0, No Iterations 0
Mass fraction min/max = 0/0
DILUPBiCG:  Solving for Ux, Initial residual = 0.0862887, Final residual = 1.12564e-10, No Iterations 3
DILUPBiCG:  Solving for Uy, Initial residual = 0.0198779, Final residual = 2.60087e-10, No Iterations 3
DILUPBiCG:  Solving for Uz, Initial residual = 0.0950659, Final residual = 2.46351e-09, No Iterations 3
max(mag(U)): 3.2808
DILUPBiCG:  Solving for h, Initial residual = 0.188076, Final residual = 2.096e-10, No Iterations 3
max/min T: 300/299.912
DILUPBiCG:  Solving for p, Initial residual = 0.0282746, Final residual = 5.65152e-09, No Iterations 61
DILUPBiCG:  Solving for p, Initial residual = 0.0020586, Final residual = 3.59901e-09, No Iterations 62
max(mag(U)): 3.2293
max/min p: 101325/101249
diagonal:  Solving for rho, Initial residual = 0, Final residual = 0, No Iterations 0
rho max/min : 1.17648 / 1.17591
time step continuity errors : sum local = 2.76613e-11, global = 1.62637e-13, cumulative = 8.82492e-12
max/min T: 300/299.912
DILUPBiCG:  Solving for p, Initial residual = 0.00210501, Final residual = 3.4022e-09, No Iterations 58
DILUPBiCG:  Solving for p, Initial residual = 0.000108214, Final residual = 3.45444e-09, No Iterations 46
max(mag(U)): 3.22893
max/min p: 101325/101249
diagonal:  Solving for rho, Initial residual = 0, Final residual = 0, No Iterations 0
rho max/min : 1.17648 / 1.17591
time step continuity errors : sum local = 2.65368e-11, global = 2.0885e-13, cumulative = 9.03377e-12
max/min Maf: 0.00627409/0
max/min MaFunction: 0.00627409/0
max/min FaceAcCourant: 442.363/2.78005
max/min kappa: 0.000704269/0
ExecutionTime = 3.15 s  ClockTime = 4 s

Mean and max Acoustic Courant Numbers = 11.3659 442.363
Courant Number mean: 0.0227498 max: 0.482342 velocity magnitude: 2.23053
deltaT = 3.74718e-06
Time = 9.88262e-05

DICPCG:  Solving for cellMotionUx, Initial residual = 5.17835e-06, Final residual = 5.39549e-09, No Iterations 17
Mesh Courant Number mean: 0.0336741 max: 0.0913054
Marking cells with bad quality to limit pressure gradient
PIMPLE: iteration 1
diagonal:  Solving for rho, Initial residual = 0, Final residual = 0, No Iterations 0
rho max/min : 1.17648 / 1.1761
Creating matrix for fvOptions
DILUPBiCG:  Solving for Y.Liq, Initial residual = 0, Final residual = 0, No Iterations 0
Mass fraction min/max = 0/0
DILUPBiCG:  Solving for Ux, Initial residual = 0.0676121, Final residual = 8.72325e-11, No Iterations 3
DILUPBiCG:  Solving for Uy, Initial residual = 0.0158045, Final residual = 5.06772e-09, No Iterations 3
DILUPBiCG:  Solving for Uz, Initial residual = 0.0916696, Final residual = 3.40725e-11, No Iterations 3
max(mag(U)): 3.30015
DILUPBiCG:  Solving for h, Initial residual = 0.30896, Final residual = 3.88958e-10, No Iterations 3
max/min T: 300/299.936
DILUPBiCG:  Solving for p, Initial residual = 0.0387923, Final residual = 6.41664e-09, No Iterations 60
DILUPBiCG:  Solving for p, Initial residual = 0.00376094, Final residual = 3.59168e-09, No Iterations 63
max(mag(U)): 3.23551
max/min p: 101325/101281
diagonal:  Solving for rho, Initial residual = 0, Final residual = 0, No Iterations 0
rho max/min : 1.17648 / 1.17611
time step continuity errors : sum local = 1.79811e-11, global = 3.36622e-15, cumulative = 9.03377e-12
max/min T: 300/299.936
DILUPBiCG:  Solving for p, Initial residual = 0.00346825, Final residual = 1.81236e-09, No Iterations 61
DILUPBiCG:  Solving for p, Initial residual = 0.000181446, Final residual = 5.31524e-09, No Iterations 52
max(mag(U)): 3.23317
max/min p: 101325/101281
diagonal:  Solving for rho, Initial residual = 0, Final residual = 0, No Iterations 0
rho max/min : 1.17648 / 1.17611
time step continuity errors : sum local = 2.65516e-11, global = 1.04963e-14, cumulative = 9.04427e-12
max/min Maf: 0.00614933/0
max/min MaFunction: 0.00614933/0
max/min FaceAcCourant: 458.162/2.88262
max/min kappa: 0.000666354/0
ExecutionTime = 3.25 s  ClockTime = 4 s

Mean and max Acoustic Courant Numbers = 11.7614 458.162
Courant Number mean: 0.0237018 max: 0.489778 velocity magnitude: 2.18625
deltaT = 3.74718e-06
Time = 0.000102573

DICPCG:  Solving for cellMotionUx, Initial residual = 5.30966e-06, Final residual = 5.53125e-09, No Iterations 17
Mesh Courant Number mean: 0.033675 max: 0.0913104
Marking cells with bad quality to limit pressure gradient
PIMPLE: iteration 1
diagonal:  Solving for rho, Initial residual = 0, Final residual = 0, No Iterations 0
rho max/min : 1.17651 / 1.17631
Creating matrix for fvOptions
DILUPBiCG:  Solving for Y.Liq, Initial residual = 0, Final residual = 0, No Iterations 0
Mass fraction min/max = 0/0
DILUPBiCG:  Solving for Ux, Initial residual = 0.0398918, Final residual = 8.65965e-11, No Iterations 3
DILUPBiCG:  Solving for Uy, Initial residual = 0.0098266, Final residual = 1.28706e-10, No Iterations 3
DILUPBiCG:  Solving for Uz, Initial residual = 0.089942, Final residual = 8.08251e-11, No Iterations 3
max(mag(U)): 3.2315
DILUPBiCG:  Solving for h, Initial residual = 0.522993, Final residual = 6.55841e-10, No Iterations 3
max/min T: 300/299.962
DILUPBiCG:  Solving for p, Initial residual = 0.0617826, Final residual = 2.08354e-09, No Iterations 65
DILUPBiCG:  Solving for p, Initial residual = 0.0115835, Final residual = 9.73714e-09, No Iterations 65
max(mag(U)): 3.19944
max/min p: 101325/101306
diagonal:  Solving for rho, Initial residual = 0, Final residual = 0, No Iterations 0
rho max/min : 1.17651 / 1.17631
time step continuity errors : sum local = 1.67035e-11, global = -5.60087e-14, cumulative = 9.04427e-12
max/min T: 300/299.962
DILUPBiCG:  Solving for p, Initial residual = 0.0119972, Final residual = 2.98149e-09, No Iterations 63
DILUPBiCG:  Solving for p, Initial residual = 0.00072125, Final residual = 5.49684e-09, No Iterations 57
max(mag(U)): 3.1973
max/min p: 101325/101306
diagonal:  Solving for rho, Initial residual = 0, Final residual = 0, No Iterations 0
rho max/min : 1.17651 / 1.17632
time step continuity errors : sum local = 9.4042e-12, global = -5.57687e-14, cumulative = 8.9885e-12
max/min Maf: 0.00610397/0
max/min MaFunction: 0.00610397/0
max/min FaceAcCourant: 458.163/2.8859
max/min kappa: 0.000664496/0
ExecutionTime = 3.36 s  ClockTime = 4 s

Mean and max Acoustic Courant Numbers = 11.7511 458.163
Courant Number mean: 0.0238269 max: 0.484957 velocity magnitude: 2.17019
deltaT = 3.74718e-06
Time = 0.000106321

DICPCG:  Solving for cellMotionUx, Initial residual = 5.32108e-06, Final residual = 5.71229e-09, No Iterations 17
Mesh Courant Number mean: 0.0336758 max: 0.0913155
Marking cells with bad quality to limit pressure gradient
PIMPLE: iteration 1
diagonal:  Solving for rho, Initial residual = 0, Final residual = 0, No Iterations 0
rho max/min : 1.17679 / 1.17647
Creating matrix for fvOptions
DILUPBiCG:  Solving for Y.Liq, Initial residual = 0, Final residual = 0, No Iterations 0
Mass fraction min/max = 0/0
DILUPBiCG:  Solving for Ux, Initial residual = 0.0114433, Final residual = 4.99448e-11, No Iterations 3
DILUPBiCG:  Solving for Uy, Initial residual = 0.0046156, Final residual = 7.74625e-11, No Iterations 3
DILUPBiCG:  Solving for Uz, Initial residual = 0.096849, Final residual = 8.50788e-11, No Iterations 3
max(mag(U)): 3.1628
DILUPBiCG:  Solving for h, Initial residual = 0.730837, Final residual = 9.72765e-10, No Iterations 3
max/min T: 300.004/299.989
DILUPBiCG:  Solving for p, Initial residual = 0.156267, Final residual = 2.31365e-09, No Iterations 68
DILUPBiCG:  Solving for p, Initial residual = 0.00783355, Final residual = 2.26843e-09, No Iterations 66
max(mag(U)): 3.14172
max/min p: 101347/101325
diagonal:  Solving for rho, Initial residual = 0, Final residual = 0, No Iterations 0
rho max/min : 1.17678 / 1.17647
time step continuity errors : sum local = 5.67638e-12, global = 1.05984e-14, cumulative = 8.9885e-12
max/min T: 300.004/299.989
DILUPBiCG:  Solving for p, Initial residual = 0.00550157, Final residual = 7.12636e-09, No Iterations 60
DILUPBiCG:  Solving for p, Initial residual = 0.000321622, Final residual = 8.24452e-09, No Iterations 58
max(mag(U)): 3.1433
max/min p: 101347/101325
diagonal:  Solving for rho, Initial residual = 0, Final residual = 0, No Iterations 0
rho max/min : 1.17678 / 1.17647
time step continuity errors : sum local = 2.04571e-11, global = -9.52214e-14, cumulative = 8.89328e-12
max/min Maf: 0.00612376/0
max/min MaFunction: 0.00612376/0
max/min FaceAcCourant: 458.163/2.88919
max/min kappa: 0.000673799/0
ExecutionTime = 3.46 s  ClockTime = 4 s

Mean and max Acoustic Courant Numbers = 11.7408 458.163
Courant Number mean: 0.0238949 max: 0.484174 velocity magnitude: 2.1773
deltaT = 3.74718e-06
Time = 0.000110068

DICPCG:  Solving for cellMotionUx, Initial residual = 5.28921e-06, Final residual = 5.65182e-09, No Iterations 17
Mesh Courant Number mean: 0.0336766 max: 0.0913206
Marking cells with bad quality to limit pressure gradient
PIMPLE: iteration 1
diagonal:  Solving for rho, Initial residual = 0, Final residual = 0, No Iterations 0
rho max/min : 1.17705 / 1.17647
Creating matrix for fvOptions
DILUPBiCG:  Solving for Y.Liq, Initial residual = 0, Final residual = 0, No Iterations 0
Mass fraction min/max = 0/0
DILUPBiCG:  Solving for Ux, Initial residual = 0.0181685, Final residual = 1.05864e-10, No Iterations 3
DILUPBiCG:  Solving for Uy, Initial residual = 0.0064184, Final residual = 1.04719e-10, No Iterations 3
DILUPBiCG:  Solving for Uz, Initial residual = 0.0786553, Final residual = 7.86606e-11, No Iterations 3
max(mag(U)): 3.09621
DILUPBiCG:  Solving for h, Initial residual = 0.891568, Final residual = 1.35566e-09, No Iterations 3
max/min T: 300.029/299.998
DILUPBiCG:  Solving for p, Initial residual = 0.100623, Final residual = 1.9494e-09, No Iterations 67
DILUPBiCG:  Solving for p, Initial residual = 0.00328523, Final residual = 5.89035e-09, No Iterations 63
max(mag(U)): 3.0247
max/min p: 101378/101325
diagonal:  Solving for rho, Initial residual = 0, Final residual = 0, No Iterations 0
rho max/min : 1.17703 / 1.17647
time step continuity errors : sum local = 3.22292e-11, global = 1.35506e-13, cumulative = 8.89328e-12
max/min T: 300.029/299.998
DILUPBiCG:  Solving for p, Initial residual = 0.00204935, Final residual = 7.51985e-09, No Iterations 57
DILUPBiCG:  Solving for p, Initial residual = 0.000131163, Final residual = 3.60066e-09, No Iterations 51
max(mag(U)): 3.02407
max/min p: 101378/101325
diagonal:  Solving for rho, Initial residual = 0, Final residual = 0, No Iterations 0
rho max/min : 1.17703 / 1.17647
time step continuity errors : sum local = 1.97104e-11, global = -5.07344e-14, cumulative = 8.84255e-12
max/min Maf: 0.00621223/0
max/min MaFunction: 0.00621223/0
max/min FaceAcCourant: 458.164/2.89248
max/min kappa: 0.000701159/0
ExecutionTime = 3.56 s  ClockTime = 4 s

Mean and max Acoustic Courant Numbers = 11.7307 458.164
Courant Number mean: 0.0239281 max: 0.487327 velocity magnitude: 2.20884
deltaT = 3.74718e-06
Time = 0.000113815

DICPCG:  Solving for cellMotionUx, Initial residual = 5.2458e-06, Final residual = 5.6703e-09, No Iterations 17
Mesh Courant Number mean: 0.0336774 max: 0.0913257
Marking cells with bad quality to limit pressure gradient
PIMPLE: iteration 1
diagonal:  Solving for rho, Initial residual = 0, Final residual = 0, No Iterations 0
rho max/min : 1.17728 / 1.17647
Creating matrix for fvOptions
DILUPBiCG:  Solving for Y.Liq, Initial residual = 0, Final residual = 0, No Iterations 0
[...]
Mass fraction min/max = 0/0
DILUPBiCG:  Solving for Ux, Initial residual = 0.000820187, Final residual = 9.42475e-10, No Iterations 2
DILUPBiCG:  Solving for Uy, Initial residual = 0.00142917, Final residual = 3.15188e-09, No Iterations 2
DILUPBiCG:  Solving for Uz, Initial residual = 0.0108616, Final residual = 2.0008e-11, No Iterations 3
max(mag(U)): 5.4067
DILUPBiCG:  Solving for h, Initial residual = 0.00546921, Final residual = 6.71014e-11, No Iterations 3
max/min T: 300.026/299.994
DILUPBiCG:  Solving for p, Initial residual = 0.0496099, Final residual = 7.96823e-09, No Iterations 54
DILUPBiCG:  Solving for p, Initial residual = 0.00497733, Final residual = 5.27907e-09, No Iterations 51
max(mag(U)): 5.40682
max/min p: 101339/101310
diagonal:  Solving for rho, Initial residual = 0, Final residual = 0, No Iterations 0
rho max/min : 1.17659 / 1.17629
time step continuity errors : sum local = 1.86467e-12, global = 8.95799e-16, cumulative = 8.50274e-12
max/min T: 300.026/299.994
DILUPBiCG:  Solving for p, Initial residual = 0.00141531, Final residual = 8.56282e-09, No Iterations 45
DILUPBiCG:  Solving for p, Initial residual = 0.000166806, Final residual = 3.16907e-09, No Iterations 45
max(mag(U)): 5.40681
max/min p: 101339/101310
diagonal:  Solving for rho, Initial residual = 0, Final residual = 0, No Iterations 0
rho max/min : 1.17659 / 1.17629
time step continuity errors : sum local = 1.11979e-12, global = 3.20273e-15, cumulative = 8.50594e-12
max/min Maf: 0.0152003/0
max/min MaFunction: 0.0152003/0
max/min FaceAcCourant: 193.004/1.14661
max/min kappa: 0.00744315/0
ExecutionTime = 100.94 s  ClockTime = 102 s

Mean and max Acoustic Courant Numbers = 4.71295 193.004
Courant Number mean: 0.0511904 max: 0.468836 velocity magnitude: 5.40443
deltaT = 1.57852e-06
Time = 0.00298895

DICPCG:  Solving for cellMotionUx, Initial residual = 2.00171e-06, Final residual = 8.1391e-09, No Iterations 19
Mesh Courant Number mean: 0.0143464 max: 0.11542
Marking cells with bad quality to limit pressure gradient
PIMPLE: iteration 1
diagonal:  Solving for rho, Initial residual = 0, Final residual = 0, No Iterations 0
rho max/min : 1.17659 / 1.17629
Creating matrix for fvOptions
DILUPBiCG:  Solving for Y.Liq, Initial residual = 0, Final residual = 0, No Iterations 0
Mass fraction min/max = 0/0
DILUPBiCG:  Solving for Ux, Initial residual = 0.000810574, Final residual = 8.95397e-10, No Iterations 2
DILUPBiCG:  Solving for Uy, Initial residual = 0.00139079, Final residual = 3.93902e-09, No Iterations 2
DILUPBiCG:  Solving for Uz, Initial residual = 0.0109786, Final residual = 8.50873e-09, No Iterations 2
max(mag(U)): 5.40646
DILUPBiCG:  Solving for h, Initial residual = 0.00526824, Final residual = 9.89727e-09, No Iterations 2
max/min T: 300.026/299.994
DILUPBiCG:  Solving for p, Initial residual = 0.0442542, Final residual = 7.20434e-09, No Iterations 54
DILUPBiCG:  Solving for p, Initial residual = 0.00400939, Final residual = 8.12311e-09, No Iterations 47
max(mag(U)): 5.40661
max/min p: 101339/101310
diagonal:  Solving for rho, Initial residual = 0, Final residual = 0, No Iterations 0
rho max/min : 1.17659 / 1.17629
time step continuity errors : sum local = 2.81732e-12, global = -1.29048e-14, cumulative = 8.50594e-12
max/min T: 300.026/299.994
DILUPBiCG:  Solving for p, Initial residual = 0.00133788, Final residual = 9.35414e-09, No Iterations 47
DILUPBiCG:  Solving for p, Initial residual = 0.000138985, Final residual = 8.652e-09, No Iterations 39
max(mag(U)): 5.4066
max/min p: 101339/101310
diagonal:  Solving for rho, Initial residual = 0, Final residual = 0, No Iterations 0
rho max/min : 1.17659 / 1.17629
time step continuity errors : sum local = 2.99735e-12, global = 5.28381e-15, cumulative = 8.51122e-12
max/min Maf: 0.0152013/0
max/min MaFunction: 0.0152013/0
max/min FaceAcCourant: 193.004/1.14611
max/min kappa: 0.00746198/0
ExecutionTime = 101.03 s  ClockTime = 103 s

Mean and max Acoustic Courant Numbers = 4.71705 193.004
Courant Number mean: 0.0512398 max: 0.471028 velocity magnitude: 5.40479
deltaT = 1.57852e-06
Time = 0.00299053

DICPCG:  Solving for cellMotionUx, Initial residual = 2.01064e-06, Final residual = 8.07943e-09, No Iterations 19
Mesh Courant Number mean: 0.0143465 max: 0.115961
Marking cells with bad quality to limit pressure gradient
PIMPLE: iteration 1
diagonal:  Solving for rho, Initial residual = 0, Final residual = 0, No Iterations 0
rho max/min : 1.17659 / 1.17629
Creating matrix for fvOptions
DILUPBiCG:  Solving for Y.Liq, Initial residual = 0, Final residual = 0, No Iterations 0
Mass fraction min/max = 0/0
DILUPBiCG:  Solving for Ux, Initial residual = 0.000795574, Final residual = 8.90115e-10, No Iterations 2
DILUPBiCG:  Solving for Uy, Initial residual = 0.0013687, Final residual = 4.34841e-09, No Iterations 2
DILUPBiCG:  Solving for Uz, Initial residual = 0.0109795, Final residual = 7.51568e-09, No Iterations 2
max(mag(U)): 5.40623
DILUPBiCG:  Solving for h, Initial residual = 0.0046974, Final residual = 8.67217e-10, No Iterations 3
max/min T: 300.026/299.994
DILUPBiCG:  Solving for p, Initial residual = 0.0397615, Final residual = 3.07071e-09, No Iterations 57
DILUPBiCG:  Solving for p, Initial residual = 0.00340972, Final residual = 3.97111e-09, No Iterations 49
max(mag(U)): 5.40641
max/min p: 101339/101310
diagonal:  Solving for rho, Initial residual = 0, Final residual = 0, No Iterations 0
rho max/min : 1.17659 / 1.17629
time step continuity errors : sum local = 1.38711e-12, global = -2.9853e-15, cumulative = 8.51122e-12
max/min T: 300.026/299.994
DILUPBiCG:  Solving for p, Initial residual = 0.00131379, Final residual = 6.42167e-09, No Iterations 43
DILUPBiCG:  Solving for p, Initial residual = 0.000142307, Final residual = 8.99065e-09, No Iterations 42
max(mag(U)): 5.40641
max/min p: 101339/101310
diagonal:  Solving for rho, Initial residual = 0, Final residual = 0, No Iterations 0
rho max/min : 1.17659 / 1.17629
time step continuity errors : sum local = 3.13337e-12, global = -1.81606e-15, cumulative = 8.50941e-12
max/min Maf: 0.0152025/0
max/min MaFunction: 0.0152025/0
max/min FaceAcCourant: 193.004/1.14561
max/min kappa: 0.00748057/0
ExecutionTime = 101.13 s  ClockTime = 103 s

Mean and max Acoustic Courant Numbers = 4.72118 193.004
Courant Number mean: 0.0512897 max: 0.473242 velocity magnitude: 5.40523
deltaT = 1.57852e-06
Time = 0.00299211

DICPCG:  Solving for cellMotionUx, Initial residual = 2.01974e-06, Final residual = 8.14227e-09, No Iterations 19
Mesh Courant Number mean: 0.0143465 max: 0.116508
Marking cells with bad quality to limit pressure gradient
PIMPLE: iteration 1
diagonal:  Solving for rho, Initial residual = 0, Final residual = 0, No Iterations 0
rho max/min : 1.17659 / 1.17629
Creating matrix for fvOptions
DILUPBiCG:  Solving for Y.Liq, Initial residual = 0, Final residual = 0, No Iterations 0
Mass fraction min/max = 0/0
DILUPBiCG:  Solving for Ux, Initial residual = 0.000794051, Final residual = 1.03477e-09, No Iterations 2
DILUPBiCG:  Solving for Uy, Initial residual = 0.00137701, Final residual = 4.92058e-09, No Iterations 2
DILUPBiCG:  Solving for Uz, Initial residual = 0.0111099, Final residual = 1.30591e-10, No Iterations 3
max(mag(U)): 5.40604
DILUPBiCG:  Solving for h, Initial residual = 0.00433648, Final residual = 1.89559e-10, No Iterations 3
max/min T: 300.026/299.994
DILUPBiCG:  Solving for p, Initial residual = 0.0395308, Final residual = 7.956e-09, No Iterations 51
DILUPBiCG:  Solving for p, Initial residual = 0.00335427, Final residual = 8.11617e-09, No Iterations 47
max(mag(U)): 5.40627
max/min p: 101339/101310
diagonal:  Solving for rho, Initial residual = 0, Final residual = 0, No Iterations 0
rho max/min : 1.17659 / 1.17629
time step continuity errors : sum local = 2.81471e-12, global = -1.30732e-15, cumulative = 8.50941e-12
max/min T: 300.026/299.994
DILUPBiCG:  Solving for p, Initial residual = 0.00124901, Final residual = 4.54908e-09, No Iterations 45
DILUPBiCG:  Solving for p, Initial residual = 0.000122155, Final residual = 7.60545e-09, No Iterations 42
max(mag(U)): 5.40627
max/min p: 101339/101310
diagonal:  Solving for rho, Initial residual = 0, Final residual = 0, No Iterations 0
rho max/min : 1.17659 / 1.17629
time step continuity errors : sum local = 2.63933e-12, global = 3.8086e-15, cumulative = 8.51321e-12
max/min Maf: 0.015204/0
max/min MaFunction: 0.015204/0
max/min FaceAcCourant: 193.004/1.14511
max/min kappa: 0.007499/0
ExecutionTime = 101.22 s  ClockTime = 103 s

Mean and max Acoustic Courant Numbers = 4.72534 193.004
Courant Number mean: 0.0513393 max: 0.475477 velocity magnitude: 5.40575
deltaT = 1.57852e-06
Time = 0.00299369

DICPCG:  Solving for cellMotionUx, Initial residual = 2.02888e-06, Final residual = 8.11571e-09, No Iterations 19
Mesh Courant Number mean: 0.0143465 max: 0.11706
Marking cells with bad quality to limit pressure gradient
PIMPLE: iteration 1
diagonal:  Solving for rho, Initial residual = 0, Final residual = 0, No Iterations 0
rho max/min : 1.17658 / 1.17629
Creating matrix for fvOptions
DILUPBiCG:  Solving for Y.Liq, Initial residual = 0, Final residual = 0, No Iterations 0
Mass fraction min/max = 0/0
DILUPBiCG:  Solving for Ux, Initial residual = 0.000791472, Final residual = 1.13564e-09, No Iterations 2
DILUPBiCG:  Solving for Uy, Initial residual = 0.00137537, Final residual = 5.80413e-09, No Iterations 2
DILUPBiCG:  Solving for Uz, Initial residual = 0.0111267, Final residual = 6.9832e-09, No Iterations 2
max(mag(U)): 5.40599
DILUPBiCG:  Solving for h, Initial residual = 0.00448681, Final residual = 1.68939e-10, No Iterations 3
max/min T: 300.026/299.994
DILUPBiCG:  Solving for p, Initial residual = 0.0386785, Final residual = 3.77603e-09, No Iterations 53
DILUPBiCG:  Solving for p, Initial residual = 0.00287959, Final residual = 9.92028e-09, No Iterations 47
max(mag(U)): 5.40617
max/min p: 101339/101310
diagonal:  Solving for rho, Initial residual = 0, Final residual = 0, No Iterations 0
rho max/min : 1.17658 / 1.17629
time step continuity errors : sum local = 3.42653e-12, global = 1.24202e-14, cumulative = 8.51321e-12
max/min T: 300.026/299.994
DILUPBiCG:  Solving for p, Initial residual = 0.0013122, Final residual = 8.30024e-09, No Iterations 47
DILUPBiCG:  Solving for p, Initial residual = 0.000152219, Final residual = 9.05289e-09, No Iterations 44
max(mag(U)): 5.40617
max/min p: 101339/101310
diagonal:  Solving for rho, Initial residual = 0, Final residual = 0, No Iterations 0
rho max/min : 1.17658 / 1.17629
time step continuity errors : sum local = 3.12209e-12, global = -2.11619e-15, cumulative = 8.5111e-12
max/min Maf: 0.0152056/0
max/min MaFunction: 0.0152056/0
max/min FaceAcCourant: 193.004/1.14461
max/min kappa: 0.00751745/0
ExecutionTime = 101.32 s  ClockTime = 103 s

Mean and max Acoustic Courant Numbers = 4.72952 193.004
Courant Number mean: 0.0513884 max: 0.477735 velocity magnitude: 5.40632
deltaT = 1.57852e-06
Time = 0.00299526

DICPCG:  Solving for cellMotionUx, Initial residual = 2.03814e-06, Final residual = 8.13548e-09, No Iterations 19
Mesh Courant Number mean: 0.0143466 max: 0.117618
Marking cells with bad quality to limit pressure gradient
PIMPLE: iteration 1
diagonal:  Solving for rho, Initial residual = 0, Final residual = 0, No Iterations 0
rho max/min : 1.17658 / 1.17629
Creating matrix for fvOptions
DILUPBiCG:  Solving for Y.Liq, Initial residual = 0, Final residual = 0, No Iterations 0
Mass fraction min/max = 0/0
DILUPBiCG:  Solving for Ux, Initial residual = 0.000790971, Final residual = 1.07002e-09, No Iterations 2
DILUPBiCG:  Solving for Uy, Initial residual = 0.00136529, Final residual = 5.95876e-09, No Iterations 2
DILUPBiCG:  Solving for Uz, Initial residual = 0.0115245, Final residual = 4.06586e-11, No Iterations 3
max(mag(U)): 5.40735
DILUPBiCG:  Solving for h, Initial residual = 0.00501271, Final residual = 3.13512e-10, No Iterations 3
max/min T: 300.026/299.994
DILUPBiCG:  Solving for p, Initial residual = 0.0407571, Final residual = 7.24786e-09, No Iterations 53
DILUPBiCG:  Solving for p, Initial residual = 0.00322475, Final residual = 7.93559e-09, No Iterations 46
max(mag(U)): 5.40745
max/min p: 101339/101310
diagonal:  Solving for rho, Initial residual = 0, Final residual = 0, No Iterations 0
rho max/min : 1.17658 / 1.17629
time step continuity errors : sum local = 2.74051e-12, global = 1.07532e-15, cumulative = 8.5111e-12
max/min T: 300.026/299.994
DILUPBiCG:  Solving for p, Initial residual = 0.00122714, Final residual = 8.05902e-09, No Iterations 47
DILUPBiCG:  Solving for p, Initial residual = 0.000133877, Final residual = 6.7722e-09, No Iterations 43
max(mag(U)): 5.40745
max/min p: 101339/101310
diagonal:  Solving for rho, Initial residual = 0, Final residual = 0, No Iterations 0
rho max/min : 1.17658 / 1.17629
time step continuity errors : sum local = 2.33727e-12, global = 6.70634e-15, cumulative = 8.5178e-12
max/min Maf: 0.0152071/0
max/min MaFunction: 0.0152071/0
max/min FaceAcCourant: 193.004/1.14411
max/min kappa: 0.00753601/0
ExecutionTime = 101.41 s  ClockTime = 103 s

Mean and max Acoustic Courant Numbers = 4.73374 193.004
Courant Number mean: 0.0514372 max: 0.480015 velocity magnitude: 5.40685
deltaT = 1.57852e-06
Time = 0.00299684

DICPCG:  Solving for cellMotionUx, Initial residual = 2.04743e-06, Final residual = 8.13763e-09, No Iterations 19
Mesh Courant Number mean: 0.0143466 max: 0.118181
Marking cells with bad quality to limit pressure gradient
PIMPLE: iteration 1
diagonal:  Solving for rho, Initial residual = 0, Final residual = 0, No Iterations 0
rho max/min : 1.17658 / 1.1763
Creating matrix for fvOptions
DILUPBiCG:  Solving for Y.Liq, Initial residual = 0, Final residual = 0, No Iterations 0
Mass fraction min/max = 0/0
DILUPBiCG:  Solving for Ux, Initial residual = 0.000802552, Final residual = 1.02472e-09, No Iterations 2
DILUPBiCG:  Solving for Uy, Initial residual = 0.00137527, Final residual = 5.73285e-09, No Iterations 2
DILUPBiCG:  Solving for Uz, Initial residual = 0.0105947, Final residual = 2.02727e-10, No Iterations 3
max(mag(U)): 5.40865
DILUPBiCG:  Solving for h, Initial residual = 0.00510765, Final residual = 4.20345e-10, No Iterations 3
max/min T: 300.026/299.994
DILUPBiCG:  Solving for p, Initial residual = 0.0417062, Final residual = 7.69836e-09, No Iterations 56
DILUPBiCG:  Solving for p, Initial residual = 0.0031353, Final residual = 4.87231e-09, No Iterations 48
max(mag(U)): 5.40872
max/min p: 101339/101310
diagonal:  Solving for rho, Initial residual = 0, Final residual = 0, No Iterations 0
rho max/min : 1.17658 / 1.17629
time step continuity errors : sum local = 1.67862e-12, global = 1.37015e-15, cumulative = 8.5178e-12
max/min T: 300.026/299.994
DILUPBiCG:  Solving for p, Initial residual = 0.00114186, Final residual = 9.76694e-09, No Iterations 46
DILUPBiCG:  Solving for p, Initial residual = 0.000106312, Final residual = 9.81925e-09, No Iterations 35
max(mag(U)): 5.40872
max/min p: 101339/101310
diagonal:  Solving for rho, Initial residual = 0, Final residual = 0, No Iterations 0
rho max/min : 1.17658 / 1.17629
time step continuity errors : sum local = 3.37524e-12, global = 1.45483e-13, cumulative = 8.66329e-12
max/min Maf: 0.0152085/0
max/min MaFunction: 0.0152085/0
max/min FaceAcCourant: 193.004/1.14361
max/min kappa: 0.00755466/0
ExecutionTime = 101.5 s  ClockTime = 103 s

Mean and max Acoustic Courant Numbers = 4.73799 193.004
Courant Number mean: 0.0514864 max: 0.482318 velocity magnitude: 5.40735
deltaT = 1.57852e-06
Time = 0.00299842

DICPCG:  Solving for cellMotionUx, Initial residual = 2.05684e-06, Final residual = 8.12188e-09, No Iterations 19
Mesh Courant Number mean: 0.0143466 max: 0.11875
Marking cells with bad quality to limit pressure gradient
PIMPLE: iteration 1
diagonal:  Solving for rho, Initial residual = 0, Final residual = 0, No Iterations 0
rho max/min : 1.17658 / 1.1763
Creating matrix for fvOptions
DILUPBiCG:  Solving for Y.Liq, Initial residual = 0, Final residual = 0, No Iterations 0
Mass fraction min/max = 0/0
DILUPBiCG:  Solving for Ux, Initial residual = 0.000809031, Final residual = 1.03729e-09, No Iterations 2
DILUPBiCG:  Solving for Uy, Initial residual = 0.00135987, Final residual = 6.05073e-09, No Iterations 2
DILUPBiCG:  Solving for Uz, Initial residual = 0.0103295, Final residual = 2.07081e-09, No Iterations 2
max(mag(U)): 5.40992
DILUPBiCG:  Solving for h, Initial residual = 0.00492522, Final residual = 3.72075e-10, No Iterations 3
max/min T: 300.026/299.994
DILUPBiCG:  Solving for p, Initial residual = 0.0453269, Final residual = 4.94584e-09, No Iterations 57
DILUPBiCG:  Solving for p, Initial residual = 0.00484178, Final residual = 5.6921e-09, No Iterations 48
max(mag(U)): 5.40998
max/min p: 101339/101311
diagonal:  Solving for rho, Initial residual = 0, Final residual = 0, No Iterations 0
rho max/min : 1.17658 / 1.1763
time step continuity errors : sum local = 1.90503e-12, global = -1.44726e-14, cumulative = 8.66329e-12
max/min T: 300.026/299.994
DILUPBiCG:  Solving for p, Initial residual = 0.00282039, Final residual = 2.82864e-09, No Iterations 52
DILUPBiCG:  Solving for p, Initial residual = 0.00043779, Final residual = 3.67564e-09, No Iterations 47
max(mag(U)): 5.40998
max/min p: 101339/101311
diagonal:  Solving for rho, Initial residual = 0, Final residual = 0, No Iterations 0
rho max/min : 1.17658 / 1.1763
time step continuity errors : sum local = 1.23093e-12, global = -2.95248e-15, cumulative = 8.66034e-12
max/min Maf: 0.0152097/0
max/min MaFunction: 0.0152097/0
max/min FaceAcCourant: 193.004/1.14311
max/min kappa: 0.00757333/0
ExecutionTime = 101.6 s  ClockTime = 103 s

Mean and max Acoustic Courant Numbers = 4.74227 193.004
Courant Number mean: 0.0515306 max: 0.484644 velocity magnitude: 5.4078
deltaT = 1.57852e-06
Time = 0.003

DICPCG:  Solving for cellMotionUx, Initial residual = 2.06628e-06, Final residual = 8.14541e-09, No Iterations 19
Mesh Courant Number mean: 0.0143466 max: 0.119325
Marking cells with bad quality to limit pressure gradient
PIMPLE: iteration 1
diagonal:  Solving for rho, Initial residual = 0, Final residual = 0, No Iterations 0
rho max/min : 1.17658 / 1.1763
Creating matrix for fvOptions
DILUPBiCG:  Solving for Y.Liq, Initial residual = 0, Final residual = 0, No Iterations 0
Mass fraction min/max = 0/0
DILUPBiCG:  Solving for Ux, Initial residual = 0.000781764, Final residual = 8.37755e-10, No Iterations 2
DILUPBiCG:  Solving for Uy, Initial residual = 0.00134443, Final residual = 2.62171e-09, No Iterations 2
DILUPBiCG:  Solving for Uz, Initial residual = 0.0111061, Final residual = 2.3325e-09, No Iterations 2
max(mag(U)): 5.41116
DILUPBiCG:  Solving for h, Initial residual = 0.00602852, Final residual = 1.46065e-09, No Iterations 3
max/min T: 300.026/299.994
DILUPBiCG:  Solving for p, Initial residual = 0.0449862, Final residual = 3.51972e-09, No Iterations 54
DILUPBiCG:  Solving for p, Initial residual = 0.00349351, Final residual = 3.33795e-09, No Iterations 49
max(mag(U)): 5.41118
max/min p: 101339/101311
diagonal:  Solving for rho, Initial residual = 0, Final residual = 0, No Iterations 0
rho max/min : 1.17658 / 1.1763
time step continuity errors : sum local = 1.12063e-12, global = -7.82908e-15, cumulative = 8.66034e-12
max/min T: 300.026/299.994
DILUPBiCG:  Solving for p, Initial residual = 0.00152354, Final residual = 6.62768e-09, No Iterations 47
DILUPBiCG:  Solving for p, Initial residual = 0.000154668, Final residual = 8.42556e-09, No Iterations 38
max(mag(U)): 5.41118
max/min p: 101339/101311
diagonal:  Solving for rho, Initial residual = 0, Final residual = 0, No Iterations 0
rho max/min : 1.17658 / 1.1763
time step continuity errors : sum local = 2.82735e-12, global = 3.5092e-16, cumulative = 8.66069e-12
max/min Maf: 0.0152107/0
max/min MaFunction: 0.0152107/0
max/min FaceAcCourant: 193.004/1.14261
max/min kappa: 0.007592/0
ExecutionTime = 101.76 s  ClockTime = 103 s

End

