/*---------------------------------------------------------------------------*\
| =========                 |                                                 |
| \\      /  F ield         | OpenFOAM: The Open Source CFD Toolbox           |
|  \\    /   O peration     | Version:  2.4.0                                 |
|   \\  /    A nd           | Web:      www.OpenFOAM.org                      |
|    \\/     M anipulation  |                                                 |
\*---------------------------------------------------------------------------*/
Build  : 2.4.0-dcea1e13ff76
Exec   : twoPhaseMixingCentralFoam
Date   : Jan 09 2016
Time   : 21:12:54
Host   : "bl019.unicluster.ru"
PID    : 10302
Case   : /lustre/unicluster/home/matvey.kraposhin/run/Unicfdlab/github-twoPhaseMixingCentralFoam/Tutorials-2.4.0
nProcs : 1
sigFpe : Enabling floating point exception trapping (FOAM_SIGFPE).
fileModificationChecking : Monitoring run-time modified files using timeStampMaster
allowSystemOperations : Allowing user-supplied system call operations

// * * * * * * * * * * * * * * * * * * * * * * * * * * * * * * * * * * * * * //
Create time

Create mesh for time = 0

Reading g

Reading transportProperties

Reading field U

Constructing compressibleTwoPhaseMixtureThermo

max/min T: 55.556/55.115
Reading thermophysical properties

Calculating mass flux field phi

Creating turbulence model

Selecting RAS turbulence model laminar
Creating field dpdt

Creating field gradp

Creating field kinetic energy K

max/min rhoLiq01027/1027
Declare and initialise the cumulative continuity error

No finite volume options present


PIMPLE: Operating solver in PISO mode

Marking cells with bad quality to limit pressure gradient
Courant Number mean: 0.01755174859 max: 0.09373945831 velocity magnitude: 29.7624

Starting time loop

Mean and max Acoustic Courant Numbers = 0.2283019013 20.30922645
Courant Number mean: 0.01753421438 max: 0.0936458125 velocity magnitude: 29.7624
deltaT = 1.19760479e-06
Time = 1.19760479e-06

PIMPLE: iteration 1
diagonal:  Solving for rho, Initial residual = 0, Final residual = 0, No Iterations 0
rho min/max = 0.3878118668/0.4802939436
DILUPBiCG:  Solving for Y.Liq, Initial residual = 1, Final residual = 6.805101434e-12, No Iterations 2
Mass fraction min/max = 2.944311108e-314/0.1
DILUPBiCG:  Solving for Ux, Initial residual = 0.9999999916, Final residual = 5.049953372e-09, No Iterations 2
DILUPBiCG:  Solving for Uy, Initial residual = 0.9007515804, Final residual = 6.405337047e-10, No Iterations 2
DILUPBiCG:  Solving for Uz, Initial residual = 1, Final residual = 4.370841476e-09, No Iterations 2
DILUPBiCG:  Solving for h, Initial residual = 0.9999999978, Final residual = 5.510542473e-12, No Iterations 2
max/min T: 55.57331901/55.115
max/min YbarLiq 4.675025411e-05/1.111779619e-317
DILUPBiCG:  Solving for p, Initial residual = 0.999999999, Final residual = 2.288418298e-10, No Iterations 4
DILUPBiCG:  Solving for p, Initial residual = 4.999238144e-05, Final residual = 4.057380472e-10, No Iterations 2
max(mag(U)): 31.01170941
diagonal:  Solving for rho, Initial residual = 0, Final residual = 0, No Iterations 0
time step continuity errors : sum local = 1.153767214e-12, global = -1.01153224e-12, cumulative = 0
max/min YbarLiq 4.535316329e-05/1.111779619e-317
DILUPBiCG:  Solving for p, Initial residual = 0.0009573681498, Final residual = 4.673540472e-09, No Iterations 2
DILUPBiCG:  Solving for p, Initial residual = 1.36470446e-07, Final residual = 6.697603691e-10, No Iterations 1
max(mag(U)): 31.0121737
diagonal:  Solving for rho, Initial residual = 0, Final residual = 0, No Iterations 0
time step continuity errors : sum local = 4.0492075e-13, global = 8.316886043e-14, cumulative = 8.316886043e-14
max/min Maf: 0.222265889/0
max/min kappa: 1/0
ExecutionTime = 0.28 s  ClockTime = 0 s

Mean and max Acoustic Courant Numbers = 0.1368202227 12.17337466
Courant Number mean: 0.02093469061 max: 0.1216953181 velocity magnitude: 32.26428661
deltaT = 1.435060913e-06
Time = 2.632665703e-06

PIMPLE: iteration 1
diagonal:  Solving for rho, Initial residual = 0, Final residual = 0, No Iterations 0
rho min/max = 0.3878118668/0.4658310317
DILUPBiCG:  Solving for Y.Liq, Initial residual = 0.2591512764, Final residual = 8.83362209e-10, No Iterations 2
Mass fraction min/max = 2.987350755e-214/0.1
DILUPBiCG:  Solving for Ux, Initial residual = 0.282204278, Final residual = 4.061632561e-10, No Iterations 2
DILUPBiCG:  Solving for Uy, Initial residual = 0.3225249383, Final residual = 3.880225661e-10, No Iterations 2
DILUPBiCG:  Solving for Uz, Initial residual = 0.3209957013, Final residual = 2.021685467e-09, No Iterations 2
DILUPBiCG:  Solving for h, Initial residual = 0.3660350787, Final residual = 8.294252453e-10, No Iterations 3
max/min T: 55.57322218/55.03738716
max/min YbarLiq 4.535675721e-05/1.128811064e-217
DILUPBiCG:  Solving for p, Initial residual = 0.3783912968, Final residual = 2.282294156e-10, No Iterations 4
DILUPBiCG:  Solving for p, Initial residual = 3.824100133e-05, Final residual = 7.755565331e-10, No Iterations 2
max(mag(U)): 32.46392495
diagonal:  Solving for rho, Initial residual = 0, Final residual = 0, No Iterations 0
time step continuity errors : sum local = 1.93850994e-11, global = 1.485470447e-11, cumulative = 8.316886043e-14
max/min YbarLiq 4.53627807e-05/1.128811064e-217
DILUPBiCG:  Solving for p, Initial residual = 0.000785084817, Final residual = 6.916330609e-11, No Iterations 3
DILUPBiCG:  Solving for p, Initial residual = 2.047033369e-07, Final residual = 1.300813171e-09, No Iterations 1
max(mag(U)): 32.46410853
diagonal:  Solving for rho, Initial residual = 0, Final residual = 0, No Iterations 0
time step continuity errors : sum local = 1.720058407e-12, global = 5.80189526e-14, cumulative = 1.41187813e-13
max/min Maf: 0.2280235424/0
max/min kappa: 1/0
ExecutionTime = 0.42 s  ClockTime = 0 s

Mean and max Acoustic Courant Numbers = 0.16389235 14.58706101
Courant Number mean: 0.0248646914 max: 0.1533349537 velocity magnitude: 33.92602121
deltaT = 1.719598852e-06
Time = 4.352264555e-06

PIMPLE: iteration 1
diagonal:  Solving for rho, Initial residual = 0, Final residual = 0, No Iterations 0
rho min/max = 0.3880799343/0.465895854
DILUPBiCG:  Solving for Y.Liq, Initial residual = 0.1672042639, Final residual = 9.218097352e-10, No Iterations 2
Mass fraction min/max = 4.200832891e-200/0.1
DILUPBiCG:  Solving for Ux, Initial residual = 0.1904225084, Final residual = 4.586519652e-10, No Iterations 2
DILUPBiCG:  Solving for Uy, Initial residual = 0.2256433763, Final residual = 4.897526511e-10, No Iterations 2
DILUPBiCG:  Solving for Uz, Initial residual = 0.2551453139, Final residual = 2.429117957e-09, No Iterations 2
DILUPBiCG:  Solving for h, Initial residual = 0.2282563141, Final residual = 5.590115668e-10, No Iterations 3
max/min T: 55.57316557/54.95288133
max/min YbarLiq 4.536304538e-05/1.589478928e-203
DILUPBiCG:  Solving for p, Initial residual = 0.254582635, Final residual = 5.552261818e-10, No Iterations 4
DILUPBiCG:  Solving for p, Initial residual = 3.544402922e-05, Final residual = 1.570728797e-09, No Iterations 2
max(mag(U)): 34.10653678
diagonal:  Solving for rho, Initial residual = 0, Final residual = 0, No Iterations 0
time step continuity errors : sum local = 6.610975047e-11, global = 4.641202324e-11, cumulative = 1.41187813e-13
max/min YbarLiq 4.537058056e-05/1.589478928e-203
DILUPBiCG:  Solving for p, Initial residual = 0.0006434167132, Final residual = 2.859794058e-10, No Iterations 3
DILUPBiCG:  Solving for p, Initial residual = 2.085709546e-07, Final residual = 2.755908446e-09, No Iterations 1
max(mag(U)): 34.10719062
diagonal:  Solving for rho, Initial residual = 0, Final residual = 0, No Iterations 0
time step continuity errors : sum local = 6.237353813e-12, global = 4.017839132e-13, cumulative = 5.429717263e-13
max/min Maf: 0.2404844933/0
max/min kappa: 1/0
ExecutionTime = 0.56 s  ClockTime = 0 s

Mean and max Acoustic Courant Numbers = 0.1962920318 17.47932311
Courant Number mean: 0.02940748285 max: 0.193647458 velocity magnitude: 35.75588574
deltaT = 2.061382475e-06
Time = 6.41364703e-06

PIMPLE: iteration 1
diagonal:  Solving for rho, Initial residual = 0, Final residual = 0, No Iterations 0
rho min/max = 0.3886024534/0.4659759163
DILUPBiCG:  Solving for Y.Liq, Initial residual = 0.128566266, Final residual = 1.106494958e-09, No Iterations 2
Mass fraction min/max = 1.581135436e-186/0.1
DILUPBiCG:  Solving for Ux, Initial residual = 0.153533672, Final residual = 6.734817385e-10, No Iterations 2
DILUPBiCG:  Solving for Uy, Initial residual = 0.1834152902, Final residual = 7.394976404e-10, No Iterations 2
DILUPBiCG:  Solving for Uz, Initial residual = 0.2076646535, Final residual = 2.575880404e-09, No Iterations 2
DILUPBiCG:  Solving for h, Initial residual = 0.1694424789, Final residual = 2.332600948e-10, No Iterations 3
max/min T: 55.6660162/54.88444339
max/min YbarLiq 4.537086026e-05/5.995298196e-190
DILUPBiCG:  Solving for p, Initial residual = 0.2029488497, Final residual = 2.665661521e-09, No Iterations 4
DILUPBiCG:  Solving for p, Initial residual = 4.057343659e-05, Final residual = 1.576192721e-10, No Iterations 3
max(mag(U)): 35.89309693
diagonal:  Solving for rho, Initial residual = 0, Final residual = 0, No Iterations 0
time step continuity errors : sum local = 1.313723098e-10, global = 8.946693705e-11, cumulative = 5.429717263e-13
max/min YbarLiq 4.538029682e-05/5.995298196e-190
DILUPBiCG:  Solving for p, Initial residual = 0.0004078451822, Final residual = 9.089184964e-10, No Iterations 3
DILUPBiCG:  Solving for p, Initial residual = 1.968891428e-07, Final residual = 5.330867932e-09, No Iterations 1
max(mag(U)): 35.8947805
diagonal:  Solving for rho, Initial residual = 0, Final residual = 0, No Iterations 0
time step continuity errors : sum local = 1.853710906e-11, global = 7.874314696e-13, cumulative = 1.330403196e-12
max/min Maf: 0.2535548226/0
max/min kappa: 1/0
ExecutionTime = 0.69 s  ClockTime = 0 s

Mean and max Acoustic Courant Numbers = 0.2351770876 20.95347428
Courant Number mean: 0.03472706165 max: 0.2444921877 velocity magnitude: 37.65913616
deltaT = 2.471607843e-06
Time = 8.885254874e-06

PIMPLE: iteration 1
diagonal:  Solving for rho, Initial residual = 0, Final residual = 0, No Iterations 0
rho min/max = 0.3894260115/0.4660742658
DILUPBiCG:  Solving for Y.Liq, Initial residual = 0.1073305737, Final residual = 1.426667216e-09, No Iterations 2
Mass fraction min/max = 1.87955181e-173/0.1
DILUPBiCG:  Solving for Ux, Initial residual = 0.1306572006, Final residual = 1.228114078e-09, No Iterations 2
DILUPBiCG:  Solving for Uy, Initial residual = 0.1570627777, Final residual = 1.130336638e-09, No Iterations 2
DILUPBiCG:  Solving for Uz, Initial residual = 0.1708192298, Final residual = 2.357626709e-09, No Iterations 2
DILUPBiCG:  Solving for h, Initial residual = 0.1395666297, Final residual = 3.051962065e-10, No Iterations 3
max/min T: 55.74113693/54.7151246
max/min YbarLiq 4.53804593e-05/7.14871086e-177
DILUPBiCG:  Solving for p, Initial residual = 0.2092492821, Final residual = 2.24421913e-10, No Iterations 5
DILUPBiCG:  Solving for p, Initial residual = 5.204349458e-05, Final residual = 6.411522613e-10, No Iterations 3
max(mag(U)): 37.72105647
diagonal:  Solving for rho, Initial residual = 0, Final residual = 0, No Iterations 0
time step continuity errors : sum local = 2.090730825e-10, global = 1.237361913e-10, cumulative = 1.330403196e-12
max/min YbarLiq 4.539228805e-05/7.14871086e-177
DILUPBiCG:  Solving for p, Initial residual = 0.0003768221627, Final residual = 2.8724668e-09, No Iterations 3
DILUPBiCG:  Solving for p, Initial residual = 2.372927004e-07, Final residual = 9.966448947e-09, No Iterations 1
max(mag(U)): 37.72473128
diagonal:  Solving for rho, Initial residual = 0, Final residual = 0, No Iterations 0
time step continuity errors : sum local = 4.915689634e-11, global = 1.17130616e-12, cumulative = 2.501709356e-12
max/min Maf: 0.2660646936/0
max/min kappa: 1/0
ExecutionTime = 0.82 s  ClockTime = 0 s

Mean and max Acoustic Courant Numbers = 0.2818555252 25.12331991
Courant Number mean: 0.04113753473 max: 0.3071381448 velocity magnitude: 39.45654659
deltaT = 2.949746265e-06
Time = 1.183500114e-05

PIMPLE: iteration 1
diagonal:  Solving for rho, Initial residual = 0, Final residual = 0, No Iterations 0
rho min/max = 0.3906107784/0.4661940695
DILUPBiCG:  Solving for Y.Liq, Initial residual = 0.09372697904, Final residual = 1.908080401e-09, No Iterations 2
Mass fraction min/max = 3.609342383e-161/0.1
DILUPBiCG:  Solving for Ux, Initial residual = 0.1175534389, Final residual = 1.771055885e-09, No Iterations 2
DILUPBiCG:  Solving for Uy, Initial residual = 0.1468483564, Final residual = 1.879638759e-09, No Iterations 2
DILUPBiCG:  Solving for Uz, Initial residual = 0.1414282361, Final residual = 2.461936582e-09, No Iterations 2
DILUPBiCG:  Solving for h, Initial residual = 0.1228019598, Final residual = 3.401289961e-10, No Iterations 3
max/min T: 55.94977443/54.49141138
max/min YbarLiq 4.539215102e-05/1.378384898e-164
DILUPBiCG:  Solving for p, Initial residual = 0.1910378007, Final residual = 1.581229528e-09, No Iterations 5
DILUPBiCG:  Solving for p, Initial residual = 5.905904905e-05, Final residual = 2.06923751e-09, No Iterations 3
max(mag(U)): 39.41349812
diagonal:  Solving for rho, Initial residual = 0, Final residual = 0, No Iterations 0
time step continuity errors : sum local = 2.617578625e-10, global = 1.206442956e-10, cumulative = 2.501709356e-12
max/min YbarLiq 4.540692799e-05/1.378384898e-164
DILUPBiCG:  Solving for p, Initial residual = 0.000394201179, Final residual = 1.538743103e-10, No Iterations 4
DILUPBiCG:  Solving for p, Initial residual = 2.871292521e-07, Final residual = 3.30515682e-10, No Iterations 2
max(mag(U)): 39.42027143
diagonal:  Solving for rho, Initial residual = 0, Final residual = 0, No Iterations 0
time step continuity errors : sum local = 2.604193568e-12, global = -2.870992839e-13, cumulative = 2.214610072e-12
max/min Maf: 0.276189514/0
max/min kappa: 1/0
ExecutionTime = 0.95 s  ClockTime = 1 s

Mean and max Acoustic Courant Numbers = 0.3362449189 29.98348597
Courant Number mean: 0.04854994961 max: 0.3797286068 velocity magnitude: 40.87459975
deltaT = 3.407465513e-06
Time = 1.524246665e-05

PIMPLE: iteration 1
diagonal:  Solving for rho, Initial residual = 0, Final residual = 0, No Iterations 0
rho min/max = 0.3921859084/0.4663376499
DILUPBiCG:  Solving for Y.Liq, Initial residual = 0.0822528593, Final residual = 2.167534688e-09, No Iterations 2
Mass fraction min/max = 6.525457002e-153/0.1
DILUPBiCG:  Solving for Ux, Initial residual = 0.1064097402, Final residual = 1.392842216e-09, No Iterations 2
DILUPBiCG:  Solving for Uy, Initial residual = 0.1336994596, Final residual = 3.05340694e-09, No Iterations 2
DILUPBiCG:  Solving for Uz, Initial residual = 0.1167377247, Final residual = 2.772529413e-09, No Iterations 2
DILUPBiCG:  Solving for h, Initial residual = 0.1115016744, Final residual = 3.713496953e-10, No Iterations 3
max/min T: 56.28429085/54.23116304
max/min YbarLiq 4.540615447e-05/2.503570761e-156
DILUPBiCG:  Solving for p, Initial residual = 0.1524712908, Final residual = 6.228235558e-09, No Iterations 5
DILUPBiCG:  Solving for p, Initial residual = 5.834234222e-05, Final residual = 5.222561506e-09, No Iterations 3
max(mag(U)): 40.72571402
diagonal:  Solving for rho, Initial residual = 0, Final residual = 0, No Iterations 0
time step continuity errors : sum local = 2.633906505e-10, global = 5.971664765e-11, cumulative = 2.214610072e-12
max/min YbarLiq 4.542390345e-05/2.503570761e-156
DILUPBiCG:  Solving for p, Initial residual = 0.0003705681619, Final residual = 5.76679323e-10, No Iterations 4
DILUPBiCG:  Solving for p, Initial residual = 6.738561559e-07, Final residual = 8.299615278e-10, No Iterations 2
max(mag(U)): 40.73503829
diagonal:  Solving for rho, Initial residual = 0, Final residual = 0, No Iterations 0
time step continuity errors : sum local = 7.939828404e-12, global = -6.650342897e-13, cumulative = 1.549575782e-12
max/min Maf: 0.2818619186/0
max/min kappa: 0.9686339043/0
ExecutionTime = 1.08 s  ClockTime = 1 s

Mean and max Acoustic Courant Numbers = 0.3882751051 34.63609586
Courant Number mean: 0.05551947544 max: 0.4465963652 velocity magnitude: 41.61465154
deltaT = 3.861794248e-06
Time = 1.91042609e-05

PIMPLE: iteration 1
diagonal:  Solving for rho, Initial residual = 0, Final residual = 0, No Iterations 0
rho min/max = 0.3940354791/0.4664993735
DILUPBiCG:  Solving for Y.Liq, Initial residual = 0.07322986907, Final residual = 2.121444019e-09, No Iterations 2
Mass fraction min/max = 2.917733517e-149/0.1
DILUPBiCG:  Solving for Ux, Initial residual = 0.09783809387, Final residual = 1.897717127e-09, No Iterations 2
DILUPBiCG:  Solving for Uy, Initial residual = 0.1227147945, Final residual = 3.167619526e-09, No Iterations 2
DILUPBiCG:  Solving for Uz, Initial residual = 0.1036536893, Final residual = 2.935904843e-09, No Iterations 2
DILUPBiCG:  Solving for h, Initial residual = 0.1008867272, Final residual = 3.643274886e-10, No Iterations 3
max/min T: 56.62401306/53.96619536
max/min YbarLiq 4.54219137e-05/1.124830857e-152
DILUPBiCG:  Solving for p, Initial residual = 0.1282962857, Final residual = 7.987230828e-10, No Iterations 6
DILUPBiCG:  Solving for p, Initial residual = 5.570500393e-05, Final residual = 3.169397593e-10, No Iterations 4
max(mag(U)): 41.48769297
diagonal:  Solving for rho, Initial residual = 0, Final residual = 0, No Iterations 0
time step continuity errors : sum local = 1.136810236e-10, global = -1.095290671e-10, cumulative = 1.549575782e-12
max/min YbarLiq 4.544217674e-05/1.124830857e-152
DILUPBiCG:  Solving for p, Initial residual = 0.0003155273129, Final residual = 1.961701007e-09, No Iterations 4
DILUPBiCG:  Solving for p, Initial residual = 2.941723219e-07, Final residual = 4.469232062e-10, No Iterations 2
max(mag(U)): 41.49698038
diagonal:  Solving for rho, Initial residual = 0, Final residual = 0, No Iterations 0
time step continuity errors : sum local = 6.27145143e-12, global = -1.187549995e-12, cumulative = 3.620257876e-13
max/min Maf: 0.2825857809/0
max/min kappa: 0.8809979089/0
ExecutionTime = 1.21 s  ClockTime = 1 s

Mean and max Acoustic Courant Numbers = 0.4399002261 39.25424197
Courant Number mean: 0.06239016995 max: 0.5062050794 velocity magnitude: 41.62011029
deltaT = 4.302174294e-06
Time = 2.340643519e-05

PIMPLE: iteration 1
diagonal:  Solving for rho, Initial residual = 0, Final residual = 0, No Iterations 0
rho min/max = 0.395938801/0.4666613933
DILUPBiCG:  Solving for Y.Liq, Initial residual = 0.0659555726, Final residual = 2.082061154e-09, No Iterations 2
Mass fraction min/max = 5.940976566e-146/0.1
DILUPBiCG:  Solving for Ux, Initial residual = 0.08969334399, Final residual = 3.302082205e-09, No Iterations 2
DILUPBiCG:  Solving for Uy, Initial residual = 0.1134806195, Final residual = 4.660466786e-09, No Iterations 2
DILUPBiCG:  Solving for Uz, Initial residual = 0.09713848673, Final residual = 3.370673692e-09, No Iterations 2
DILUPBiCG:  Solving for h, Initial residual = 0.09099576857, Final residual = 3.991888495e-10, No Iterations 3
max/min T: 56.95301519/53.7347965
max/min YbarLiq 4.543766358e-05/2.300015826e-149
DILUPBiCG:  Solving for p, Initial residual = 0.1171658889, Final residual = 4.346776386e-09, No Iterations 6
DILUPBiCG:  Solving for p, Initial residual = 5.484532858e-05, Final residual = 8.830804965e-09, No Iterations 3
max(mag(U)): 41.65610407
diagonal:  Solving for rho, Initial residual = 0, Final residual = 0, No Iterations 0
time step continuity errors : sum local = 3.889899639e-10, global = -2.656233572e-10, cumulative = 3.620257876e-13
max/min YbarLiq 4.54580353e-05/2.300015826e-149
DILUPBiCG:  Solving for p, Initial residual = 0.0003067002174, Final residual = 3.757742527e-09, No Iterations 4
DILUPBiCG:  Solving for p, Initial residual = 2.84080613e-07, Final residual = 5.537269644e-10, No Iterations 2
max(mag(U)): 41.6606205
diagonal:  Solving for rho, Initial residual = 0, Final residual = 0, No Iterations 0
time step continuity errors : sum local = 9.600326724e-12, global = -1.768403091e-12, cumulative = -1.406377304e-12
max/min Maf: 0.2791411092/0
max/min kappa: 0.8118515703/0
ExecutionTime = 1.33 s  ClockTime = 1 s

Mean and max Acoustic Courant Numbers = 0.4899212052 43.7306029
Courant Number mean: 0.06901257537 max: 0.5558857192 velocity magnitude: 41.02467106
deltaT = 4.62840552e-06
Time = 2.803484072e-05

PIMPLE: iteration 1
diagonal:  Solving for rho, Initial residual = 0, Final residual = 0, No Iterations 0
rho min/max = 0.3929745666/0.4667966816
DILUPBiCG:  Solving for Y.Liq, Initial residual = 0.05887952398, Final residual = 1.870373052e-09, No Iterations 2
Mass fraction min/max = 1.430857034e-143/0.1
DILUPBiCG:  Solving for Ux, Initial residual = 0.08033940606, Final residual = 2.518429541e-09, No Iterations 2
DILUPBiCG:  Solving for Uy, Initial residual = 0.1027342584, Final residual = 4.218132247e-09, No Iterations 2
DILUPBiCG:  Solving for Uz, Initial residual = 0.08607929539, Final residual = 3.373506444e-09, No Iterations 2
DILUPBiCG:  Solving for h, Initial residual = 0.08162963893, Final residual = 5.166361796e-10, No Iterations 3
max/min T: 57.26822777/53.57784481
max/min YbarLiq 4.545077015e-05/5.55528733e-147
DILUPBiCG:  Solving for p, Initial residual = 0.1019353061, Final residual = 8.910162988e-09, No Iterations 6
DILUPBiCG:  Solving for p, Initial residual = 5.106614928e-05, Final residual = 1.666793566e-09, No Iterations 4
max(mag(U)): 41.34742786
diagonal:  Solving for rho, Initial residual = 0, Final residual = 0, No Iterations 0
time step continuity errors : sum local = 4.101270318e-10, global = -3.68392022e-10, cumulative = -1.406377304e-12
max/min YbarLiq 4.546752322e-05/5.500216408e-147
DILUPBiCG:  Solving for p, Initial residual = 0.0002859406727, Final residual = 9.228847085e-09, No Iterations 4
DILUPBiCG:  Solving for p, Initial residual = 3.051971792e-07, Final residual = 7.871387447e-09, No Iterations 2
max(mag(U)): 41.34309851
diagonal:  Solving for rho, Initial residual = 0, Final residual = 0, No Iterations 0
time step continuity errors : sum local = 1.232324365e-10, global = -1.608709827e-12, cumulative = -3.01508713e-12
max/min Maf: 0.2737363907/0
max/min kappa: 0.7696692338/0
ExecutionTime = 1.46 s  ClockTime = 1 s

Mean and max Acoustic Courant Numbers = 0.526932278 47.04666757
Courant Number mean: 0.07379366642 max: 0.5856064099 velocity magnitude: 40.1716739
deltaT = 4.74129346e-06
Time = 3.277613418e-05

PIMPLE: iteration 1
diagonal:  Solving for rho, Initial residual = 0, Final residual = 0, No Iterations 0
rho min/max = 0.3918534466/0.4668812397
DILUPBiCG:  Solving for Y.Liq, Initial residual = 0.05127212708, Final residual = 1.498321014e-09, No Iterations 2
Mass fraction min/max = 6.067655252e-142/0.1
DILUPBiCG:  Solving for Ux, Initial residual = 0.07577051173, Final residual = 1.394949816e-09, No Iterations 2
DILUPBiCG:  Solving for Uy, Initial residual = 0.09082079742, Final residual = 3.741129689e-09, No Iterations 2
DILUPBiCG:  Solving for Uz, Initial residual = 0.07366834576, Final residual = 2.754821533e-09, No Iterations 2
DILUPBiCG:  Solving for h, Initial residual = 0.07149525535, Final residual = 1.162529547e-09, No Iterations 3
max/min T: 57.56907741/53.51066141
max/min YbarLiq 4.545892256e-05/2.335220907e-145
DILUPBiCG:  Solving for p, Initial residual = 0.08427587904, Final residual = 7.623673843e-10, No Iterations 7
DILUPBiCG:  Solving for p, Initial residual = 4.42675231e-05, Final residual = 2.142464014e-09, No Iterations 4
max(mag(U)): 40.79323131
diagonal:  Solving for rho, Initial residual = 0, Final residual = 0, No Iterations 0
time step continuity errors : sum local = 4.408565983e-10, global = -3.458052279e-10, cumulative = -3.01508713e-12
max/min YbarLiq 4.546918558e-05/2.324178807e-145
DILUPBiCG:  Solving for p, Initial residual = 0.0002526991742, Final residual = 5.827301963e-09, No Iterations 4
DILUPBiCG:  Solving for p, Initial residual = 2.691379697e-07, Final residual = 5.523038649e-09, No Iterations 2
max(mag(U)): 40.77874497
diagonal:  Solving for rho, Initial residual = 0, Final residual = 0, No Iterations 0
time step continuity errors : sum local = 9.950130921e-11, global = 7.410220784e-14, cumulative = -2.940984923e-12
max/min Maf: 0.2687965655/0
max/min kappa: 0.7608546043/0
ExecutionTime = 1.59 s  ClockTime = 1 s

Mean and max Acoustic Courant Numbers = 0.5396630146 48.19414727
Courant Number mean: 0.0752227703 max: 0.5886995894 velocity magnitude: 39.42234062
deltaT = 4.812059034e-06
Time = 3.758819321e-05

PIMPLE: iteration 1
diagonal:  Solving for rho, Initial residual = 0, Final residual = 0, No Iterations 0
rho min/max = 0.3920031884/0.466910223
DILUPBiCG:  Solving for Y.Liq, Initial residual = 0.04522382787, Final residual = 1.307072723e-09, No Iterations 2
Mass fraction min/max = 2.110870459e-140/0.1
DILUPBiCG:  Solving for Ux, Initial residual = 0.07111132799, Final residual = 1.039948444e-09, No Iterations 2
DILUPBiCG:  Solving for Uy, Initial residual = 0.08214900021, Final residual = 2.621832416e-09, No Iterations 2
DILUPBiCG:  Solving for Uz, Initial residual = 0.06434644083, Final residual = 2.265861671e-09, No Iterations 2
DILUPBiCG:  Solving for h, Initial residual = 0.06393860508, Final residual = 1.711951163e-09, No Iterations 3
max/min T: 57.87203332/53.51272432
max/min YbarLiq 4.546169186e-05/8.084913346e-144
DILUPBiCG:  Solving for p, Initial residual = 0.07138997266, Final residual = 6.138482894e-10, No Iterations 7
DILUPBiCG:  Solving for p, Initial residual = 3.801395328e-05, Final residual = 5.155834006e-09, No Iterations 4
max(mag(U)): 40.19532522
diagonal:  Solving for rho, Initial residual = 0, Final residual = 0, No Iterations 0
time step continuity errors : sum local = 4.416106678e-10, global = -2.589601546e-10, cumulative = -2.940984923e-12
max/min YbarLiq 4.546573049e-05/8.080287881e-144
DILUPBiCG:  Solving for p, Initial residual = 0.0002089226046, Final residual = 3.190237975e-11, No Iterations 6
DILUPBiCG:  Solving for p, Initial residual = 3.145756507e-07, Final residual = 9.170952362e-11, No Iterations 3
max(mag(U)): 40.17339421
diagonal:  Solving for rho, Initial residual = 0, Final residual = 0, No Iterations 0
time step continuity errors : sum local = 3.782299423e-12, global = 1.570683019e-12, cumulative = -1.370301904e-12
max/min Maf: 0.2660592688/0
max/min kappa: 0.7550778203/0
ExecutionTime = 1.71 s  ClockTime = 1 s

Mean and max Acoustic Courant Numbers = 0.5476186466 48.9134629
Courant Number mean: 0.07606579271 max: 0.589424628 velocity magnitude: 39.06132508
deltaT = 4.885339121e-06
Time = 4.247353233e-05

PIMPLE: iteration 1
diagonal:  Solving for rho, Initial residual = 0, Final residual = 0, No Iterations 0
rho min/max = 0.3928959089/0.4668986896
DILUPBiCG:  Solving for Y.Liq, Initial residual = 0.04053104003, Final residual = 1.21155251e-09, No Iterations 2
Mass fraction min/max = 6.9529527e-139/0.1
DILUPBiCG:  Solving for Ux, Initial residual = 0.06652757786, Final residual = 9.557988263e-10, No Iterations 2
DILUPBiCG:  Solving for Uy, Initial residual = 0.07428273803, Final residual = 2.071501331e-09, No Iterations 2
DILUPBiCG:  Solving for Uz, Initial residual = 0.05704354419, Final residual = 2.032624809e-09, No Iterations 2
DILUPBiCG:  Solving for h, Initial residual = 0.05825597897, Final residual = 1.390971664e-09, No Iterations 3
max/min T: 58.17664729/53.55509767
max/min YbarLiq 4.54605467e-05/2.659319726e-142
DILUPBiCG:  Solving for p, Initial residual = 0.06347049511, Final residual = 6.00108416e-10, No Iterations 7
DILUPBiCG:  Solving for p, Initial residual = 4.582989001e-05, Final residual = 2.669253625e-10, No Iterations 5
max(mag(U)): 39.6810756
diagonal:  Solving for rho, Initial residual = 0, Final residual = 0, No Iterations 0
time step continuity errors : sum local = 2.691594762e-10, global = -1.470963043e-10, cumulative = -1.370301904e-12
max/min YbarLiq 4.54601125e-05/2.664781014e-142
DILUPBiCG:  Solving for p, Initial residual = 0.0001702640925, Final residual = 3.477495219e-10, No Iterations 5
DILUPBiCG:  Solving for p, Initial residual = 6.056183583e-07, Final residual = 1.931158241e-10, No Iterations 3
max(mag(U)): 39.65586654
diagonal:  Solving for rho, Initial residual = 0, Final residual = 0, No Iterations 0
time step continuity errors : sum local = 6.66677787e-12, global = 2.782489775e-12, cumulative = 1.412187871e-12
max/min Maf: 0.2671619295/0
max/min kappa: 0.7464301703/0
ExecutionTime = 1.84 s  ClockTime = 1 s

Mean and max Acoustic Courant Numbers = 0.5558850754 49.65834399
Courant Number mean: 0.07704949994 max: 0.5938757887 velocity magnitude: 39.22044882
deltaT = 4.935703442e-06
Time = 4.740923577e-05

PIMPLE: iteration 1
diagonal:  Solving for rho, Initial residual = 0, Final residual = 0, No Iterations 0
rho min/max = 0.3936313078/0.4668654225
DILUPBiCG:  Solving for Y.Liq, Initial residual = 0.0365975819, Final residual = 1.201673612e-09, No Iterations 2
Mass fraction min/max = 1.912855428e-137/0.1
DILUPBiCG:  Solving for Ux, Initial residual = 0.06095766505, Final residual = 9.83751684e-10, No Iterations 2
DILUPBiCG:  Solving for Uy, Initial residual = 0.06729348907, Final residual = 1.650281965e-09, No Iterations 2
DILUPBiCG:  Solving for Uz, Initial residual = 0.05082111454, Final residual = 1.894175789e-09, No Iterations 2
DILUPBiCG:  Solving for h, Initial residual = 0.05332991266, Final residual = 7.277204319e-10, No Iterations 3
max/min T: 58.47382159/53.61251858
max/min YbarLiq 4.545730624e-05/7.322902757e-141
DILUPBiCG:  Solving for p, Initial residual = 0.05730969972, Final residual = 8.494570102e-10, No Iterations 7
DILUPBiCG:  Solving for p, Initial residual = 3.716759937e-05, Final residual = 3.220523248e-09, No Iterations 4
max(mag(U)): 39.31031065
diagonal:  Solving for rho, Initial residual = 0, Final residual = 0, No Iterations 0
time step continuity errors : sum local = 3.18657427e-10, global = -4.321453929e-11, cumulative = 1.412187871e-12
max/min YbarLiq 4.545435298e-05/7.346710451e-141
DILUPBiCG:  Solving for p, Initial residual = 0.00013013154, Final residual = 4.008585405e-09, No Iterations 4
DILUPBiCG:  Solving for p, Initial residual = 2.968196448e-07, Final residual = 2.241466712e-10, No Iterations 3
max(mag(U)): 39.28584497
diagonal:  Solving for rho, Initial residual = 0, Final residual = 0, No Iterations 0
time step continuity errors : sum local = 8.021654928e-12, global = 2.028625415e-12, cumulative = 3.440813285e-12
max/min Maf: 0.2675792342/0
max/min kappa: 0.7397793306/0
ExecutionTime = 1.97 s  ClockTime = 2 s

Mean and max Acoustic Courant Numbers = 0.561570098 50.17031208
Courant Number mean: 0.0777778817 max: 0.5986927225 velocity magnitude: 39.28777488
deltaT = 4.935703442e-06
Time = 5.234493921e-05

PIMPLE: iteration 1
diagonal:  Solving for rho, Initial residual = 0, Final residual = 0, No Iterations 0
rho min/max = 0.394460621/0.4668266786
DILUPBiCG:  Solving for Y.Liq, Initial residual = 0.03304666897, Final residual = 1.334158669e-09, No Iterations 2
Mass fraction min/max = 3.951352688e-136/0.1
DILUPBiCG:  Solving for Ux, Initial residual = 0.05505603393, Final residual = 1.156347489e-09, No Iterations 2
DILUPBiCG:  Solving for Uy, Initial residual = 0.06050990681, Final residual = 1.640681207e-09, No Iterations 2
DILUPBiCG:  Solving for Uz, Initial residual = 0.04531561156, Final residual = 1.725343461e-09, No Iterations 2
DILUPBiCG:  Solving for h, Initial residual = 0.048809619, Final residual = 7.191701128e-10, No Iterations 3
max/min T: 58.75551899/53.63589341
max/min YbarLiq 4.545354655e-05/1.515954926e-139
DILUPBiCG:  Solving for p, Initial residual = 0.0514725573, Final residual = 2.36950636e-09, No Iterations 7
DILUPBiCG:  Solving for p, Initial residual = 3.829626318e-05, Final residual = 6.654784838e-09, No Iterations 4
max(mag(U)): 39.40211729
diagonal:  Solving for rho, Initial residual = 0, Final residual = 0, No Iterations 0
time step continuity errors : sum local = 4.139387817e-10, global = 4.902963232e-11, cumulative = 3.440813285e-12
max/min YbarLiq 4.544981479e-05/1.521038371e-139
DILUPBiCG:  Solving for p, Initial residual = 0.0001054222749, Final residual = 7.694363877e-09, No Iterations 4
DILUPBiCG:  Solving for p, Initial residual = 3.283719376e-07, Final residual = 3.40309256e-10, No Iterations 3
max(mag(U)): 39.41688514
diagonal:  Solving for rho, Initial residual = 0, Final residual = 0, No Iterations 0
time step continuity errors : sum local = 1.149498913e-11, global = 1.788406617e-12, cumulative = 5.229219902e-12
max/min Maf: 0.2676054194/0
max/min kappa: 0.7397942093/0
ExecutionTime = 2.1 s  ClockTime = 2 s

Mean and max Acoustic Courant Numbers = 0.56155081 50.17040151
Courant Number mean: 0.07781545749 max: 0.5996161838 velocity magnitude: 39.30090428
deltaT = 4.935703442e-06
Time = 5.728064265e-05

PIMPLE: iteration 1
diagonal:  Solving for rho, Initial residual = 0, Final residual = 0, No Iterations 0
rho min/max = 0.3953509144/0.4667951234
DILUPBiCG:  Solving for Y.Liq, Initial residual = 0.03012500226, Final residual = 2.073707211e-09, No Iterations 2
Mass fraction min/max = 7.105074165e-135/0.1
DILUPBiCG:  Solving for Ux, Initial residual = 0.05011310577, Final residual = 2.467475009e-09, No Iterations 2
DILUPBiCG:  Solving for Uy, Initial residual = 0.05502007634, Final residual = 1.354709102e-09, No Iterations 2
DILUPBiCG:  Solving for Uz, Initial residual = 0.04061356106, Final residual = 1.628136324e-09, No Iterations 2
DILUPBiCG:  Solving for h, Initial residual = 0.04483729683, Final residual = 5.808339489e-11, No Iterations 3
max/min T: 59.02022735/53.64289047
max/min YbarLiq 4.545049522e-05/2.732707284e-138
DILUPBiCG:  Solving for p, Initial residual = 0.0465466561, Final residual = 1.744918573e-09, No Iterations 7
DILUPBiCG:  Solving for p, Initial residual = 5.191569289e-05, Final residual = 6.703406863e-10, No Iterations 5
max(mag(U)): 39.70179996
diagonal:  Solving for rho, Initial residual = 0, Final residual = 0, No Iterations 0
time step continuity errors : sum local = 2.477819241e-10, global = 1.285952195e-10, cumulative = 5.229219902e-12
max/min YbarLiq 4.544731594e-05/2.740493428e-138
DILUPBiCG:  Solving for p, Initial residual = 8.779075971e-05, Final residual = 4.889242362e-09, No Iterations 4
DILUPBiCG:  Solving for p, Initial residual = 8.881515359e-07, Final residual = 8.166401905e-09, No Iterations 2
max(mag(U)): 39.70757835
diagonal:  Solving for rho, Initial residual = 0, Final residual = 0, No Iterations 0
time step continuity errors : sum local = 2.456263378e-10, global = -8.314564338e-12, cumulative = -3.085344436e-12
max/min Maf: 0.2674471604/0
max/min kappa: 0.7394606962/0
ExecutionTime = 2.23 s  ClockTime = 2 s

Mean and max Acoustic Courant Numbers = 0.5615542951 50.17065417
Courant Number mean: 0.07794362515 max: 0.6016077867 velocity magnitude: 39.28653274
deltaT = 4.909996653e-06
Time = 6.219063931e-05

PIMPLE: iteration 1
diagonal:  Solving for rho, Initial residual = 0, Final residual = 0, No Iterations 0
rho min/max = 0.3961368134/0.4667793562
DILUPBiCG:  Solving for Y.Liq, Initial residual = 0.02753609279, Final residual = 1.886387804e-13, No Iterations 3
Mass fraction min/max = 1.063282683e-133/0.1
DILUPBiCG:  Solving for Ux, Initial residual = 0.04565065252, Final residual = 8.442265203e-09, No Iterations 2
DILUPBiCG:  Solving for Uy, Initial residual = 0.05101561731, Final residual = 2.187820023e-09, No Iterations 2
DILUPBiCG:  Solving for Uz, Initial residual = 0.03640915081, Final residual = 1.573720643e-09, No Iterations 2
DILUPBiCG:  Solving for h, Initial residual = 0.04120454335, Final residual = 8.158675425e-12, No Iterations 3
max/min T: 59.26242182/53.63970153
max/min YbarLiq 4.54489856e-05/4.09887496e-137
DILUPBiCG:  Solving for p, Initial residual = 0.04213166149, Final residual = 5.615779876e-09, No Iterations 6
DILUPBiCG:  Solving for p, Initial residual = 4.904803208e-05, Final residual = 2.420234789e-09, No Iterations 4
max(mag(U)): 39.85493831
diagonal:  Solving for rho, Initial residual = 0, Final residual = 0, No Iterations 0
time step continuity errors : sum local = 3.083157013e-10, global = 1.89048215e-10, cumulative = -3.085344436e-12
max/min YbarLiq 4.544729882e-05/4.107440754e-137
DILUPBiCG:  Solving for p, Initial residual = 7.471187913e-05, Final residual = 2.673072948e-09, No Iterations 4
DILUPBiCG:  Solving for p, Initial residual = 7.532497655e-07, Final residual = 3.050721428e-09, No Iterations 2
max(mag(U)): 39.85330148
diagonal:  Solving for rho, Initial residual = 0, Final residual = 0, No Iterations 0
time step continuity errors : sum local = 9.897087153e-11, global = -1.026828831e-11, cumulative = -1.335363274e-11
max/min Maf: 0.2678101766/0
max/min kappa: 0.7444146064/0
ExecutionTime = 2.35 s  ClockTime = 2 s

Mean and max Acoustic Courant Numbers = 0.5586516605 49.90994513
Courant Number mean: 0.07773786373 max: 0.6007786359 velocity magnitude: 39.33171068
deltaT = 4.884423754e-06
Time = 6.707506306e-05

PIMPLE: iteration 1
diagonal:  Solving for rho, Initial residual = 0, Final residual = 0, No Iterations 0
rho min/max = 0.3958044759/0.4667829595
DILUPBiCG:  Solving for Y.Liq, Initial residual = 0.02533568787, Final residual = 1.10747961e-09, No Iterations 2
Mass fraction min/max = 1.411100037e-132/0.1
DILUPBiCG:  Solving for Ux, Initial residual = 0.04209727367, Final residual = 1.921547575e-09, No Iterations 2
DILUPBiCG:  Solving for Uy, Initial residual = 0.04726141703, Final residual = 1.415069684e-09, No Iterations 2
DILUPBiCG:  Solving for Uz, Initial residual = 0.03275497426, Final residual = 1.593719851e-09, No Iterations 2
DILUPBiCG:  Solving for h, Initial residual = 0.03809863333, Final residual = 4.877075861e-12, No Iterations 3
max/min T: 59.48067688/53.62815942
max/min YbarLiq 4.544935951e-05/5.449425372e-136
DILUPBiCG:  Solving for p, Initial residual = 0.03841712961, Final residual = 4.232979449e-09, No Iterations 6
DILUPBiCG:  Solving for p, Initial residual = 3.537916746e-05, Final residual = 1.047374845e-09, No Iterations 4
max(mag(U)): 39.90517951
diagonal:  Solving for rho, Initial residual = 0, Final residual = 0, No Iterations 0
time step continuity errors : sum local = 2.701247228e-10, global = 2.276562267e-10, cumulative = -1.335363274e-11
max/min YbarLiq 4.544952539e-05/5.456524566e-136
DILUPBiCG:  Solving for p, Initial residual = 6.161352535e-05, Final residual = 1.856242186e-09, No Iterations 4
DILUPBiCG:  Solving for p, Initial residual = 4.568301986e-07, Final residual = 7.800792131e-09, No Iterations 2
max(mag(U)): 39.89788247
diagonal:  Solving for rho, Initial residual = 0, Final residual = 0, No Iterations 0
time step continuity errors : sum local = 2.691876666e-10, global = -3.163790455e-12, cumulative = -1.65174232e-11
max/min Maf: 0.2677613003/0
max/min kappa: 0.7482795483/0
ExecutionTime = 2.48 s  ClockTime = 2 s

Mean and max Acoustic Courant Numbers = 0.5557768792 49.65122435
Courant Number mean: 0.07758218623 max: 0.5995859087 velocity magnitude: 39.32457926
deltaT = 4.884423754e-06
Time = 7.195948681e-05

PIMPLE: iteration 1
diagonal:  Solving for rho, Initial residual = 0, Final residual = 0, No Iterations 0
rho min/max = 0.395585805/0.4668057966
DILUPBiCG:  Solving for Y.Liq, Initial residual = 0.02356128335, Final residual = 5.822700688e-10, No Iterations 2
Mass fraction min/max = 1.782083199e-131/0.1
DILUPBiCG:  Solving for Ux, Initial residual = 0.03992731233, Final residual = 1.44243024e-09, No Iterations 2
DILUPBiCG:  Solving for Uy, Initial residual = 0.04415799818, Final residual = 1.528755066e-09, No Iterations 2
DILUPBiCG:  Solving for Uz, Initial residual = 0.02965835018, Final residual = 1.710353207e-09, No Iterations 2
DILUPBiCG:  Solving for h, Initial residual = 0.03570811837, Final residual = 8.624658646e-12, No Iterations 3
max/min T: 59.67406299/53.56134629
max/min YbarLiq 4.545160245e-05/6.890404481e-135
DILUPBiCG:  Solving for p, Initial residual = 0.03548050441, Final residual = 3.976723637e-09, No Iterations 6
DILUPBiCG:  Solving for p, Initial residual = 1.816219898e-05, Final residual = 6.587851316e-10, No Iterations 4
max(mag(U)): 39.88836363
diagonal:  Solving for rho, Initial residual = 0, Final residual = 0, No Iterations 0
time step continuity errors : sum local = 2.694246612e-10, global = 2.371820545e-10, cumulative = -1.65174232e-11
max/min YbarLiq 4.54536429e-05/6.892349392e-135
DILUPBiCG:  Solving for p, Initial residual = 5.292905281e-05, Final residual = 2.917992339e-09, No Iterations 4
DILUPBiCG:  Solving for p, Initial residual = 1.609881326e-07, Final residual = 2.075405083e-09, No Iterations 2
max(mag(U)): 39.87772499
diagonal:  Solving for rho, Initial residual = 0, Final residual = 0, No Iterations 0
time step continuity errors : sum local = 7.67414426e-11, global = -4.018067514e-13, cumulative = -1.691922995e-11
max/min Maf: 0.2674978424/0
max/min kappa: 0.7476708859/0
ExecutionTime = 2.61 s  ClockTime = 2 s

Mean and max Acoustic Courant Numbers = 0.5558170477 49.65348268
Courant Number mean: 0.07785276476 max: 0.6010197962 velocity magnitude: 39.28804772
deltaT = 4.858850854e-06
Time = 7.681833767e-05

PIMPLE: iteration 1
diagonal:  Solving for rho, Initial residual = 0, Final residual = 0, No Iterations 0
rho min/max = 0.3956066959/0.4668451363
DILUPBiCG:  Solving for Y.Liq, Initial residual = 0.02190436508, Final residual = 4.334328943e-10, No Iterations 2
Mass fraction min/max = 1.992402522e-130/0.1
DILUPBiCG:  Solving for Ux, Initial residual = 0.03816606004, Final residual = 1.38841587e-09, No Iterations 2
DILUPBiCG:  Solving for Uy, Initial residual = 0.04174838701, Final residual = 3.49225956e-09, No Iterations 2
DILUPBiCG:  Solving for Uz, Initial residual = 0.02671329374, Final residual = 1.806593295e-09, No Iterations 2
DILUPBiCG:  Solving for h, Initial residual = 0.03342372672, Final residual = 4.303257907e-11, No Iterations 3
max/min T: 59.83801718/53.46648574
max/min YbarLiq 4.545544607e-05/7.706088673e-134
DILUPBiCG:  Solving for p, Initial residual = 0.03300805776, Final residual = 3.53757742e-09, No Iterations 6
DILUPBiCG:  Solving for p, Initial residual = 1.535403715e-05, Final residual = 5.709538466e-10, No Iterations 4
max(mag(U)): 39.83186565
diagonal:  Solving for rho, Initial residual = 0, Final residual = 0, No Iterations 0
time step continuity errors : sum local = 2.709109971e-10, global = 2.308435237e-10, cumulative = -1.691922995e-11
max/min YbarLiq 4.545906049e-05/7.706088673e-134
DILUPBiCG:  Solving for p, Initial residual = 4.411061543e-05, Final residual = 1.020669157e-09, No Iterations 4
DILUPBiCG:  Solving for p, Initial residual = 1.756574827e-07, Final residual = 4.001539781e-09, No Iterations 2
max(mag(U)): 39.82002118
diagonal:  Solving for rho, Initial residual = 0, Final residual = 0, No Iterations 0
time step continuity errors : sum local = 1.56832541e-10, global = -4.254518221e-12, cumulative = -2.117374817e-11
max/min Maf: 0.2671731264/0
max/min kappa: 0.7507920775/0
ExecutionTime = 2.73 s  ClockTime = 2 s

Mean and max Acoustic Courant Numbers = 0.5529438059 49.39721537
Courant Number mean: 0.07770074297 max: 0.5987339882 velocity magnitude: 39.24327652
deltaT = 4.858850854e-06
Time = 8.167718852e-05

PIMPLE: iteration 1
diagonal:  Solving for rho, Initial residual = 0, Final residual = 0, No Iterations 0
rho min/max = 0.3957583612/0.4668953702
DILUPBiCG:  Solving for Y.Liq, Initial residual = 0.0205661299, Final residual = 3.761054203e-10, No Iterations 2
Mass fraction min/max = 2.14641498e-129/0.1
DILUPBiCG:  Solving for Ux, Initial residual = 0.03665714728, Final residual = 1.475914431e-09, No Iterations 2
DILUPBiCG:  Solving for Uy, Initial residual = 0.03957256594, Final residual = 4.729092925e-09, No Iterations 2
DILUPBiCG:  Solving for Uz, Initial residual = 0.02414615453, Final residual = 1.938293193e-09, No Iterations 2
DILUPBiCG:  Solving for h, Initial residual = 0.03149073078, Final residual = 6.005067143e-11, No Iterations 3
max/min T: 59.97407552/53.38627764
max/min YbarLiq 4.546034234e-05/8.302597805e-133
DILUPBiCG:  Solving for p, Initial residual = 0.03105189769, Final residual = 3.525000945e-09, No Iterations 6
DILUPBiCG:  Solving for p, Initial residual = 1.46888658e-05, Final residual = 8.508813048e-10, No Iterations 4
max(mag(U)): 39.75416144
diagonal:  Solving for rho, Initial residual = 0, Final residual = 0, No Iterations 0
time step continuity errors : sum local = 2.82169973e-10, global = 2.240847038e-10, cumulative = -2.117374817e-11
max/min YbarLiq 4.546499782e-05/8.302597805e-133
DILUPBiCG:  Solving for p, Initial residual = 3.782563462e-05, Final residual = 8.006742049e-10, No Iterations 4
DILUPBiCG:  Solving for p, Initial residual = 1.634671548e-07, Final residual = 9.305421127e-09, No Iterations 2
max(mag(U)): 39.7424707
diagonal:  Solving for rho, Initial residual = 0, Final residual = 0, No Iterations 0
time step continuity errors : sum local = 3.839977823e-10, global = -6.068327352e-12, cumulative = -2.724207552e-11
max/min Maf: 0.2675568018/0
max/min kappa: 0.7511068626/0
ExecutionTime = 2.86 s  ClockTime = 2 s

Mean and max Acoustic Courant Numbers = 0.5529707644 49.40291078
Courant Number mean: 0.07791623039 max: 0.5990704568 velocity magnitude: 39.30115445
deltaT = 4.858850854e-06
Time = 8.653603938e-05

PIMPLE: iteration 1
diagonal:  Solving for rho, Initial residual = 0, Final residual = 0, No Iterations 0
rho min/max = 0.3959069874/0.4669519184
DILUPBiCG:  Solving for Y.Liq, Initial residual = 0.01938404352, Final residual = 3.527908642e-10, No Iterations 2
Mass fraction min/max = 2.183225999e-128/0.1
DILUPBiCG:  Solving for Ux, Initial residual = 0.03500688675, Final residual = 1.59730389e-09, No Iterations 2
DILUPBiCG:  Solving for Uy, Initial residual = 0.03696751856, Final residual = 3.586544083e-09, No Iterations 2
DILUPBiCG:  Solving for Uz, Initial residual = 0.02178892476, Final residual = 2.015348182e-09, No Iterations 2
DILUPBiCG:  Solving for h, Initial residual = 0.02972612554, Final residual = 3.267970702e-11, No Iterations 3
max/min T: 60.08037168/53.32325656
max/min YbarLiq 4.546584963e-05/8.445903431e-132
DILUPBiCG:  Solving for p, Initial residual = 0.02933017935, Final residual = 5.547814695e-09, No Iterations 6
DILUPBiCG:  Solving for p, Initial residual = 1.451602332e-05, Final residual = 1.97087746e-09, No Iterations 4
max(mag(U)): 39.66632138
diagonal:  Solving for rho, Initial residual = 0, Final residual = 0, No Iterations 0
time step continuity errors : sum local = 3.351264228e-10, global = 2.106288059e-10, cumulative = -2.724207552e-11
max/min YbarLiq 4.547108864e-05/8.445903431e-132
DILUPBiCG:  Solving for p, Initial residual = 3.215925306e-05, Final residual = 6.282228023e-10, No Iterations 4
DILUPBiCG:  Solving for p, Initial residual = 1.646371356e-07, Final residual = 4.715136531e-11, No Iterations 3
max(mag(U)): 39.65583862
diagonal:  Solving for rho, Initial residual = 0, Final residual = 0, No Iterations 0
time step continuity errors : sum local = 3.094896396e-12, global = -1.240643242e-12, cumulative = -2.848271876e-11
max/min Maf: 0.2677042394/0
max/min kappa: 0.7515100674/0
ExecutionTime = 3 s  ClockTime = 3 s

Mean and max Acoustic Courant Numbers = 0.5529829065 49.41285748
Courant Number mean: 0.07807136906 max: 0.598957037 velocity magnitude: 39.32235026
deltaT = 4.858850854e-06
Time = 9.139489023e-05

PIMPLE: iteration 1
diagonal:  Solving for rho, Initial residual = 0, Final residual = 0, No Iterations 0
rho min/max = 0.3960531116/0.467009926
DILUPBiCG:  Solving for Y.Liq, Initial residual = 0.01832589647, Final residual = 3.498291208e-10, No Iterations 2
Mass fraction min/max = 2.105586456e-127/0.1
DILUPBiCG:  Solving for Ux, Initial residual = 0.03339129116, Final residual = 1.728167019e-09, No Iterations 2
DILUPBiCG:  Solving for Uy, Initial residual = 0.03560074491, Final residual = 2.87384977e-12, No Iterations 3
DILUPBiCG:  Solving for Uz, Initial residual = 0.01970331854, Final residual = 2.006543091e-09, No Iterations 2
DILUPBiCG:  Solving for h, Initial residual = 0.02814244102, Final residual = 2.871239236e-11, No Iterations 3
max/min T: 60.15718864/53.27918959
max/min YbarLiq 4.547149372e-05/8.146243213e-131
DILUPBiCG:  Solving for p, Initial residual = 0.02777404208, Final residual = 2.251932618e-09, No Iterations 7
DILUPBiCG:  Solving for p, Initial residual = 1.412370084e-05, Final residual = 4.890548988e-09, No Iterations 4
max(mag(U)): 39.57433852
diagonal:  Solving for rho, Initial residual = 0, Final residual = 0, No Iterations 0
time step continuity errors : sum local = 4.701154112e-10, global = 1.996458763e-10, cumulative = -2.848271876e-11
max/min YbarLiq 4.547681913e-05/8.145974516e-131
DILUPBiCG:  Solving for p, Initial residual = 2.776193422e-05, Final residual = 4.945380946e-10, No Iterations 4
DILUPBiCG:  Solving for p, Initial residual = 1.836881973e-07, Final residual = 5.269876463e-11, No Iterations 3
max(mag(U)): 39.56566541
diagonal:  Solving for rho, Initial residual = 0, Final residual = 0, No Iterations 0
time step continuity errors : sum local = 3.241521733e-12, global = -9.793642618e-13, cumulative = -2.946208302e-11
max/min Maf: 0.2675880172/0
max/min kappa: 0.7513034138/0
ExecutionTime = 3.12 s  ClockTime = 3 s

Mean and max Acoustic Courant Numbers = 0.552976511 49.42519263
Courant Number mean: 0.07815088526 max: 0.598479796 velocity magnitude: 39.30537305
deltaT = 4.858850854e-06
Time = 9.625374109e-05

PIMPLE: iteration 1
diagonal:  Solving for rho, Initial residual = 0, Final residual = 0, No Iterations 0
rho min/max = 0.3960265138/0.4670655909
DILUPBiCG:  Solving for Y.Liq, Initial residual = 0.01737271494, Final residual = 3.611690592e-10, No Iterations 2
Mass fraction min/max = 1.93221864e-126/0.1
DILUPBiCG:  Solving for Ux, Initial residual = 0.03187266825, Final residual = 1.841194692e-09, No Iterations 2
DILUPBiCG:  Solving for Uy, Initial residual = 0.03430793054, Final residual = 3.951054723e-09, No Iterations 2
DILUPBiCG:  Solving for Uz, Initial residual = 0.01802956666, Final residual = 1.928349004e-09, No Iterations 2
DILUPBiCG:  Solving for h, Initial residual = 0.02670590729, Final residual = 2.89426197e-11, No Iterations 3
max/min T: 60.2056237/53.25528912
max/min YbarLiq 4.547690731e-05/7.475561025e-130
DILUPBiCG:  Solving for p, Initial residual = 0.0263535176, Final residual = 9.428409462e-09, No Iterations 6
DILUPBiCG:  Solving for p, Initial residual = 1.211904246e-05, Final residual = 1.170313715e-10, No Iterations 5
max(mag(U)): 39.68982952
diagonal:  Solving for rho, Initial residual = 0, Final residual = 0, No Iterations 0
time step continuity errors : sum local = 2.521578405e-10, global = 1.932973876e-10, cumulative = -2.946208302e-11
max/min YbarLiq 4.548195258e-05/7.473814688e-130
DILUPBiCG:  Solving for p, Initial residual = 2.393840848e-05, Final residual = 4.911312242e-10, No Iterations 4
DILUPBiCG:  Solving for p, Initial residual = 1.397382046e-07, Final residual = 6.85077947e-11, No Iterations 3
max(mag(U)): 39.68507202
diagonal:  Solving for rho, Initial residual = 0, Final residual = 0, No Iterations 0
time step continuity errors : sum local = 3.748888104e-12, global = -7.227113849e-13, cumulative = -3.018479441e-11
max/min Maf: 0.2672865638/0
max/min kappa: 0.7506753257/0
ExecutionTime = 3.25 s  ClockTime = 3 s

Mean and max Acoustic Courant Numbers = 0.5529486879 49.43921286
Courant Number mean: 0.07814280593 max: 0.5977087469 velocity magnitude: 39.26103295
deltaT = 4.858850854e-06
Time = 0.0001011125919

PIMPLE: iteration 1
diagonal:  Solving for rho, Initial residual = 0, Final residual = 0, No Iterations 0
rho min/max = 0.395703086/0.4671167291
DILUPBiCG:  Solving for Y.Liq, Initial residual = 0.01651298089, Final residual = 3.817715257e-10, No Iterations 2
Mass fraction min/max = 1.691959726e-125/0.1
DILUPBiCG:  Solving for Ux, Initial residual = 0.03047086533, Final residual = 1.914066305e-09, No Iterations 2
DILUPBiCG:  Solving for Uy, Initial residual = 0.03287956223, Final residual = 3.416635492e-09, No Iterations 2
DILUPBiCG:  Solving for Uz, Initial residual = 0.01704271401, Final residual = 1.85811275e-09, No Iterations 2
DILUPBiCG:  Solving for h, Initial residual = 0.0253947857, Final residual = 3.065687451e-11, No Iterations 3
max/min T: 60.22709508/53.2523012
max/min YbarLiq 4.548187961e-05/6.544496221e-129
DILUPBiCG:  Solving for p, Initial residual = 0.02503238006, Final residual = 5.518252947e-09, No Iterations 6
DILUPBiCG:  Solving for p, Initial residual = 9.335322254e-06, Final residual = 7.457106568e-09, No Iterations 4
max(mag(U)): 39.73759484
diagonal:  Solving for rho, Initial residual = 0, Final residual = 0, No Iterations 0
time step continuity errors : sum local = 6.135112624e-10, global = 1.955375276e-10, cumulative = -3.018479441e-11
max/min YbarLiq 4.548643627e-05/6.54332723e-129
DILUPBiCG:  Solving for p, Initial residual = 2.02524646e-05, Final residual = 7.266231507e-09, No Iterations 3
DILUPBiCG:  Solving for p, Initial residual = 1.242434192e-07, Final residual = 6.929119863e-10, No Iterations 2
max(mag(U)): 39.73134151
diagonal:  Solving for rho, Initial residual = 0, Final residual = 0, No Iterations 0
time step continuity errors : sum local = 3.457101659e-11, global = -2.926166075e-12, cumulative = -3.311096048e-11
max/min Maf: 0.2673521667/0
max/min kappa: 0.7509566025/0
ExecutionTime = 3.38 s  ClockTime = 3 s

Mean and max Acoustic Courant Numbers = 0.5528975494 49.45380662
Courant Number mean: 0.07803942056 max: 0.596681107 velocity magnitude: 39.26498306
deltaT = 4.885257652e-06
Time = 0.0001059978496

PIMPLE: iteration 1
diagonal:  Solving for rho, Initial residual = 0, Final residual = 0, No Iterations 0
rho min/max = 0.3954880727/0.467162676
DILUPBiCG:  Solving for Y.Liq, Initial residual = 0.0158189657, Final residual = 4.188314147e-10, No Iterations 2
Mass fraction min/max = 1.472837887e-124/0.1
DILUPBiCG:  Solving for Ux, Initial residual = 0.02940284039, Final residual = 1.987070547e-09, No Iterations 2
DILUPBiCG:  Solving for Uy, Initial residual = 0.03135351431, Final residual = 2.947839533e-09, No Iterations 2
DILUPBiCG:  Solving for Uz, Initial residual = 0.01701363806, Final residual = 1.906441414e-09, No Iterations 2
DILUPBiCG:  Solving for h, Initial residual = 0.02432249089, Final residual = 3.314167943e-11, No Iterations 3
max/min T: 60.22530227/53.24666549
max/min YbarLiq 4.548634751e-05/5.695722153e-128
DILUPBiCG:  Solving for p, Initial residual = 0.02395545295, Final residual = 6.209576139e-09, No Iterations 6
DILUPBiCG:  Solving for p, Initial residual = 8.114008447e-06, Final residual = 7.534202219e-09, No Iterations 3
max(mag(U)): 39.72147187
diagonal:  Solving for rho, Initial residual = 0, Final residual = 0, No Iterations 0
time step continuity errors : sum local = 6.311161118e-10, global = 2.051799882e-10, cumulative = -3.311096048e-11
max/min YbarLiq 4.54903716e-05/5.695045308e-128
DILUPBiCG:  Solving for p, Initial residual = 1.791791732e-05, Final residual = 6.948858122e-09, No Iterations 3
DILUPBiCG:  Solving for p, Initial residual = 9.917512134e-08, Final residual = 5.500202448e-10, No Iterations 2
max(mag(U)): 39.71462597
diagonal:  Solving for rho, Initial residual = 0, Final residual = 0, No Iterations 0
time step continuity errors : sum local = 2.877742095e-11, global = -2.283858487e-13, cumulative = -3.333934633e-11
max/min Maf: 0.267143648/0
max/min kappa: 0.7465728492/0
ExecutionTime = 3.51 s  ClockTime = 3 s

Mean and max Acoustic Courant Numbers = 0.5558266429 49.73658291
Courant Number mean: 0.07826034768 max: 0.5986396866 velocity magnitude: 39.23053885
deltaT = 4.885257652e-06
Time = 0.0001108831072

PIMPLE: iteration 1
diagonal:  Solving for rho, Initial residual = 0, Final residual = 0, No Iterations 0
rho min/max = 0.3952793181/0.4672041185
DILUPBiCG:  Solving for Y.Liq, Initial residual = 0.01510535906, Final residual = 4.435253033e-10, No Iterations 2
Mass fraction min/max = 1.203899115e-123/0.1
DILUPBiCG:  Solving for Ux, Initial residual = 0.02829434788, Final residual = 1.943839737e-09, No Iterations 2
DILUPBiCG:  Solving for Uy, Initial residual = 0.0302034415, Final residual = 2.637625878e-09, No Iterations 2
DILUPBiCG:  Solving for Uz, Initial residual = 0.01770265274, Final residual = 1.965450905e-09, No Iterations 2
DILUPBiCG:  Solving for h, Initial residual = 0.02321830436, Final residual = 3.197385557e-11, No Iterations 3
max/min T: 60.20109375/53.17039052
max/min YbarLiq 4.549037835e-05/4.654856539e-127
DILUPBiCG:  Solving for p, Initial residual = 0.02286557544, Final residual = 3.222769596e-09, No Iterations 7
DILUPBiCG:  Solving for p, Initial residual = 8.745414345e-06, Final residual = 3.772654341e-09, No Iterations 3
max(mag(U)): 39.65714324
diagonal:  Solving for rho, Initial residual = 0, Final residual = 0, No Iterations 0
time step continuity errors : sum local = 4.567365986e-10, global = 2.020457832e-10, cumulative = -3.333934633e-11
max/min YbarLiq 4.549390335e-05/4.65462042e-127
DILUPBiCG:  Solving for p, Initial residual = 1.564617578e-05, Final residual = 6.371140836e-09, No Iterations 3
DILUPBiCG:  Solving for p, Initial residual = 1.330199167e-07, Final residual = 9.966439772e-09, No Iterations 1
max(mag(U)): 39.65046797
diagonal:  Solving for rho, Initial residual = 0, Final residual = 0, No Iterations 0
time step continuity errors : sum local = 5.3786372e-10, global = 1.106551553e-10, cumulative = 7.731580901e-11
max/min Maf: 0.2666923679/0
max/min kappa: 0.7456933396/0
ExecutionTime = 3.64 s  ClockTime = 3 s

Mean and max Acoustic Courant Numbers = 0.5557276182 49.74908107
Courant Number mean: 0.07796173986 max: 0.5971535366 velocity magnitude: 39.16050615
deltaT = 4.885257652e-06
Time = 0.0001157683649

PIMPLE: iteration 1
diagonal:  Solving for rho, Initial residual = 0, Final residual = 0, No Iterations 0
rho min/max = 0.3949729076/0.4672411036
DILUPBiCG:  Solving for Y.Liq, Initial residual = 0.01445200759, Final residual = 4.750091523e-10, No Iterations 2
Mass fraction min/max = 9.439042959e-123/0.1
DILUPBiCG:  Solving for Ux, Initial residual = 0.02726792855, Final residual = 1.823876879e-09, No Iterations 2
DILUPBiCG:  Solving for Uy, Initial residual = 0.02958743141, Final residual = 2.954901223e-09, No Iterations 2
DILUPBiCG:  Solving for Uz, Initial residual = 0.01906896722, Final residual = 1.963767968e-09, No Iterations 2
DILUPBiCG:  Solving for h, Initial residual = 0.02218734125, Final residual = 2.756228629e-11, No Iterations 3
max/min T: 60.15525051/53.10807552
max/min YbarLiq 4.549397523e-05/3.649109591e-126
DILUPBiCG:  Solving for p, Initial residual = 0.02186030204, Final residual = 5.206882517e-09, No Iterations 7
DILUPBiCG:  Solving for p, Initial residual = 7.687250256e-06, Final residual = 3.570189249e-09, No Iterations 3
max(mag(U)): 39.55745624
diagonal:  Solving for rho, Initial residual = 0, Final residual = 0, No Iterations 0
time step continuity errors : sum local = 4.54094141e-10, global = 2.225435558e-10, cumulative = 7.731580901e-11
max/min YbarLiq 4.549703611e-05/3.649102875e-126
DILUPBiCG:  Solving for p, Initial residual = 1.510357107e-05, Final residual = 5.128307206e-09, No Iterations 3
DILUPBiCG:  Solving for p, Initial residual = 1.03850117e-07, Final residual = 1.126517549e-09, No Iterations 2
max(mag(U)): 39.55113964
diagonal:  Solving for rho, Initial residual = 0, Final residual = 0, No Iterations 0
time step continuity errors : sum local = 6.327495271e-11, global = 1.641034879e-12, cumulative = 7.895684389e-11
max/min Maf: 0.2665935152/0
max/min kappa: 0.745469934/0
ExecutionTime = 3.76 s  ClockTime = 3 s

Mean and max Acoustic Courant Numbers = 0.5556088404 49.75908854
Courant Number mean: 0.07758153153 max: 0.5955165807 velocity magnitude: 39.13692733
deltaT = 4.912397973e-06
Time = 0.0001206807629

PIMPLE: iteration 1
diagonal:  Solving for rho, Initial residual = 0, Final residual = 0, No Iterations 0
rho min/max = 0.3945064896/0.4672751433
DILUPBiCG:  Solving for Y.Liq, Initial residual = 0.01392530716, Final residual = 5.208229854e-10, No Iterations 2
Mass fraction min/max = 7.367473e-122/0.1
DILUPBiCG:  Solving for Ux, Initial residual = 0.02637997595, Final residual = 1.666441459e-09, No Iterations 2
DILUPBiCG:  Solving for Uy, Initial residual = 0.02904674909, Final residual = 2.0782567e-09, No Iterations 2
DILUPBiCG:  Solving for Uz, Initial residual = 0.02101709048, Final residual = 1.874978697e-09, No Iterations 2
DILUPBiCG:  Solving for h, Initial residual = 0.02135186696, Final residual = 2.357957976e-11, No Iterations 3
max/min T: 60.08967587/53.06097854
max/min YbarLiq 4.549728859e-05/2.847979775e-125
DILUPBiCG:  Solving for p, Initial residual = 0.02103760248, Final residual = 8.700795035e-10, No Iterations 7
DILUPBiCG:  Solving for p, Initial residual = 6.827889598e-06, Final residual = 7.184804628e-09, No Iterations 3
max(mag(U)): 39.43178553
diagonal:  Solving for rho, Initial residual = 0, Final residual = 0, No Iterations 0
time step continuity errors : sum local = 6.774253092e-10, global = 2.420296362e-10, cumulative = 7.895684389e-11
max/min YbarLiq 4.550008438e-05/2.84801275e-125
DILUPBiCG:  Solving for p, Initial residual = 1.513143331e-05, Final residual = 5.286565324e-09, No Iterations 3
DILUPBiCG:  Solving for p, Initial residual = 1.026733106e-07, Final residual = 8.42858114e-09, No Iterations 1
max(mag(U)): 39.42601775
diagonal:  Solving for rho, Initial residual = 0, Final residual = 0, No Iterations 0
time step continuity errors : sum local = 4.894266416e-10, global = -5.280397306e-11, cumulative = 2.615287083e-11
max/min Maf: 0.2662545295/0
max/min kappa: 0.7407999813/0
ExecutionTime = 3.89 s  ClockTime = 3 s

Mean and max Acoustic Courant Numbers = 0.5585717315 50.04142146
Courant Number mean: 0.07761059055 max: 0.5970678215 velocity magnitude: 39.0801831
deltaT = 4.912397973e-06
Time = 0.0001255931608

PIMPLE: iteration 1
diagonal:  Solving for rho, Initial residual = 0, Final residual = 0, No Iterations 0
rho min/max = 0.3942020884/0.4673083198
DILUPBiCG:  Solving for Y.Liq, Initial residual = 0.01336113323, Final residual = 5.456383584e-10, No Iterations 2
Mass fraction min/max = 5.434848618e-121/0.1
DILUPBiCG:  Solving for Ux, Initial residual = 0.0254153743, Final residual = 1.427246254e-09, No Iterations 2
DILUPBiCG:  Solving for Uy, Initial residual = 0.02773913739, Final residual = 1.57439734e-09, No Iterations 2
DILUPBiCG:  Solving for Uz, Initial residual = 0.02310152086, Final residual = 1.665767397e-09, No Iterations 2
DILUPBiCG:  Solving for h, Initial residual = 0.02059159466, Final residual = 1.61795033e-11, No Iterations 3
max/min T: 60.00448879/53.03090689
max/min YbarLiq 4.550051967e-05/2.100738034e-124
DILUPBiCG:  Solving for p, Initial residual = 0.02023821197, Final residual = 1.331890762e-09, No Iterations 7
DILUPBiCG:  Solving for p, Initial residual = 5.635510235e-06, Final residual = 9.157638449e-09, No Iterations 3
max(mag(U)): 39.29699659
diagonal:  Solving for rho, Initial residual = 0, Final residual = 0, No Iterations 0
time step continuity errors : sum local = 8.291306077e-10, global = 2.549473353e-10, cumulative = 2.615287083e-11
max/min YbarLiq 4.550322209e-05/2.100768317e-124
DILUPBiCG:  Solving for p, Initial residual = 1.426941063e-05, Final residual = 4.651338679e-09, No Iterations 3
DILUPBiCG:  Solving for p, Initial residual = 7.313561924e-08, Final residual = 6.411304804e-09, No Iterations 1
max(mag(U)): 39.29337644
diagonal:  Solving for rho, Initial residual = 0, Final residual = 0, No Iterations 0
time step continuity errors : sum local = 3.856153632e-10, global = -3.486384498e-11, cumulative = -8.710974147e-12
max/min Maf: 0.2656844778/0
max/min kappa: 0.7396939192/0
ExecutionTime = 4.03 s  ClockTime = 4 s

Mean and max Acoustic Courant Numbers = 0.5584614731 50.04344136
Courant Number mean: 0.07726051922 max: 0.5952695864 velocity magnitude: 38.99110486
deltaT = 4.940151634e-06
Time = 0.0001305333125

PIMPLE: iteration 1
diagonal:  Solving for rho, Initial residual = 0, Final residual = 0, No Iterations 0
rho min/max = 0.3937052794/0.467341226
DILUPBiCG:  Solving for Y.Liq, Initial residual = 0.01291227134, Final residual = 5.912565096e-10, No Iterations 2
Mass fraction min/max = 3.99197171e-120/0.1
DILUPBiCG:  Solving for Ux, Initial residual = 0.02468626881, Final residual = 1.245308286e-09, No Iterations 2
DILUPBiCG:  Solving for Uy, Initial residual = 0.0271855884, Final residual = 1.725919214e-09, No Iterations 2
DILUPBiCG:  Solving for Uz, Initial residual = 0.02547387233, Final residual = 1.548090604e-09, No Iterations 2
DILUPBiCG:  Solving for h, Initial residual = 0.02022568126, Final residual = 9.963199199e-12, No Iterations 3
max/min T: 59.90260937/53.01875457
max/min YbarLiq 4.550372402e-05/1.542909728e-123
DILUPBiCG:  Solving for p, Initial residual = 0.01967936902, Final residual = 1.08380964e-09, No Iterations 7
DILUPBiCG:  Solving for p, Initial residual = 5.085280483e-06, Final residual = 4.693020942e-10, No Iterations 4
max(mag(U)): 39.30811786
diagonal:  Solving for rho, Initial residual = 0, Final residual = 0, No Iterations 0
time step continuity errors : sum local = 3.355032783e-10, global = 2.991358627e-10, cumulative = -8.710974147e-12
max/min YbarLiq 4.550640723e-05/1.542934068e-123
DILUPBiCG:  Solving for p, Initial residual = 1.390103448e-05, Final residual = 4.691438916e-09, No Iterations 3
DILUPBiCG:  Solving for p, Initial residual = 6.105489661e-08, Final residual = 6.241922937e-09, No Iterations 1
max(mag(U)): 39.3036975
diagonal:  Solving for rho, Initial residual = 0, Final residual = 0, No Iterations 0
time step continuity errors : sum local = 3.884526073e-10, global = 1.545230689e-13, cumulative = -8.556451078e-12
max/min Maf: 0.2653816344/0
max/min kappa: 0.7350569396/0
ExecutionTime = 4.15 s  ClockTime = 4 s

Mean and max Acoustic Courant Numbers = 0.5615314223 50.32591391
Courant Number mean: 0.07744605452 max: 0.5972967601 velocity magnitude: 38.93428811
deltaT = 4.940151634e-06
Time = 0.0001354734641

PIMPLE: iteration 1
diagonal:  Solving for rho, Initial residual = 0, Final residual = 0, No Iterations 0
rho min/max = 0.3934700173/0.4673755422
DILUPBiCG:  Solving for Y.Liq, Initial residual = 0.0124258664, Final residual = 6.057478104e-10, No Iterations 2
Mass fraction min/max = 2.778946108e-119/0.1
DILUPBiCG:  Solving for Ux, Initial residual = 0.02392632416, Final residual = 1.047506304e-09, No Iterations 2
DILUPBiCG:  Solving for Uy, Initial residual = 0.02653607706, Final residual = 1.436845924e-09, No Iterations 2
DILUPBiCG:  Solving for Uz, Initial residual = 0.02780097572, Final residual = 1.65327513e-09, No Iterations 2
DILUPBiCG:  Solving for h, Initial residual = 0.01976928296, Final residual = 8.35884435e-09, No Iterations 2
max/min T: 59.78476883/53.0257079
max/min YbarLiq 4.550706812e-05/1.073999645e-122
DILUPBiCG:  Solving for p, Initial residual = 0.01913330527, Final residual = 1.766659813e-09, No Iterations 7
DILUPBiCG:  Solving for p, Initial residual = 4.748988475e-06, Final residual = 7.973516671e-10, No Iterations 4
max(mag(U)): 39.26486857
diagonal:  Solving for rho, Initial residual = 0, Final residual = 0, No Iterations 0
time step continuity errors : sum local = 3.796737357e-10, global = 3.233601222e-10, cumulative = -8.556451078e-12
max/min YbarLiq 4.550988085e-05/1.074013061e-122
DILUPBiCG:  Solving for p, Initial residual = 1.299514489e-05, Final residual = 4.592720997e-09, No Iterations 3
DILUPBiCG:  Solving for p, Initial residual = 4.521913914e-08, Final residual = 3.95470782e-09, No Iterations 1
max(mag(U)): 39.25996817
diagonal:  Solving for rho, Initial residual = 0, Final residual = 0, No Iterations 0
time step continuity errors : sum local = 2.536897395e-10, global = 1.123136313e-11, cumulative = 2.674912048e-12
max/min Maf: 0.2649185936/0
max/min kappa: 0.7341932748/0
ExecutionTime = 4.28 s  ClockTime = 4 s

Mean and max Acoustic Courant Numbers = 0.5614785648 50.32475181
Courant Number mean: 0.07732252749 max: 0.596350692 velocity magnitude: 38.86160489
deltaT = 4.96854331e-06
Time = 0.0001404420074

PIMPLE: iteration 1
diagonal:  Solving for rho, Initial residual = 0, Final residual = 0, No Iterations 0
rho min/max = 0.3933528182/0.4674116135
DILUPBiCG:  Solving for Y.Liq, Initial residual = 0.01204278456, Final residual = 6.378199866e-10, No Iterations 2
Mass fraction min/max = 1.927003776e-118/0.1
DILUPBiCG:  Solving for Ux, Initial residual = 0.02335849993, Final residual = 9.214605125e-10, No Iterations 2
DILUPBiCG:  Solving for Uy, Initial residual = 0.02618607564, Final residual = 1.19883758e-09, No Iterations 2
DILUPBiCG:  Solving for Uz, Initial residual = 0.03029869382, Final residual = 2.174034894e-09, No Iterations 2
DILUPBiCG:  Solving for h, Initial residual = 0.01945842708, Final residual = 6.53190518e-09, No Iterations 2
max/min T: 59.65364139/53.05240309
max/min YbarLiq 4.551058236e-05/7.446943623e-122
DILUPBiCG:  Solving for p, Initial residual = 0.01877613105, Final residual = 9.660734089e-10, No Iterations 7
DILUPBiCG:  Solving for p, Initial residual = 4.48706011e-06, Final residual = 1.014721298e-09, No Iterations 4
max(mag(U)): 39.1782724
diagonal:  Solving for rho, Initial residual = 0, Final residual = 0, No Iterations 0
time step continuity errors : sum local = 4.191690395e-10, global = 3.540028735e-10, cumulative = 2.674912048e-12
max/min YbarLiq 4.551357063e-05/7.446994252e-122
DILUPBiCG:  Solving for p, Initial residual = 1.267754647e-05, Final residual = 4.679812932e-09, No Iterations 3
DILUPBiCG:  Solving for p, Initial residual = 2.405834779e-08, Final residual = 1.958650945e-09, No Iterations 1
max(mag(U)): 39.17340041
diagonal:  Solving for rho, Initial residual = 0, Final residual = 0, No Iterations 0
time step continuity errors : sum local = 1.298054831e-10, global = 1.083429822e-11, cumulative = 1.350921027e-11
max/min Maf: 0.2642681239/0
max/min kappa: 0.7286582503/0
ExecutionTime = 4.41 s  ClockTime = 4 s

Mean and max Acoustic Courant Numbers = 0.5646841128 50.61219364
Courant Number mean: 0.07776843543 max: 0.5988306861 velocity magnitude: 38.76464145
deltaT = 4.96854331e-06
Time = 0.0001454105507

PIMPLE: iteration 1
diagonal:  Solving for rho, Initial residual = 0, Final residual = 0, No Iterations 0
rho min/max = 0.3932928301/0.4674507046
DILUPBiCG:  Solving for Y.Liq, Initial residual = 0.01161560395, Final residual = 6.251607193e-10, No Iterations 2
Mass fraction min/max = 1.270068092e-117/0.1
DILUPBiCG:  Solving for Ux, Initial residual = 0.0227476495, Final residual = 8.481064728e-10, No Iterations 2
DILUPBiCG:  Solving for Uy, Initial residual = 0.0250508676, Final residual = 1.047760883e-09, No Iterations 2
DILUPBiCG:  Solving for Uz, Initial residual = 0.03257410817, Final residual = 2.356282433e-09, No Iterations 2
DILUPBiCG:  Solving for h, Initial residual = 0.01906092549, Final residual = 5.223012851e-09, No Iterations 2
max/min T: 59.51014723/53.00223337
max/min YbarLiq 4.55143925e-05/4.907877691e-121
DILUPBiCG:  Solving for p, Initial residual = 0.01836672273, Final residual = 2.253854085e-10, No Iterations 7
DILUPBiCG:  Solving for p, Initial residual = 4.0578166e-06, Final residual = 6.26874934e-10, No Iterations 4
max(mag(U)): 39.06731388
diagonal:  Solving for rho, Initial residual = 0, Final residual = 0, No Iterations 0
time step continuity errors : sum local = 4.163578197e-10, global = 3.750680505e-10, cumulative = 1.350921027e-11
max/min YbarLiq 4.551766014e-05/4.90786963e-121
DILUPBiCG:  Solving for p, Initial residual = 1.206333171e-05, Final residual = 5.838840207e-09, No Iterations 3
DILUPBiCG:  Solving for p, Initial residual = 1.932560725e-08, Final residual = 2.36698542e-09, No Iterations 1
max(mag(U)): 39.06300529
diagonal:  Solving for rho, Initial residual = 0, Final residual = 0, No Iterations 0
time step continuity errors : sum local = 1.612342192e-10, global = 4.232727328e-12, cumulative = 1.77419376e-11
max/min Maf: 0.2638873426/0
max/min kappa: 0.7278959393/0
ExecutionTime = 4.54 s  ClockTime = 4 s

Mean and max Acoustic Courant Numbers = 0.5646845699 50.61059426
Courant Number mean: 0.0778541019 max: 0.5978924803 velocity magnitude: 38.70645717
deltaT = 4.96854331e-06
Time = 0.000150379094

PIMPLE: iteration 1
diagonal:  Solving for rho, Initial residual = 0, Final residual = 0, No Iterations 0
rho min/max = 0.3934307217/0.4674923535
DILUPBiCG:  Solving for Y.Liq, Initial residual = 0.01121487808, Final residual = 6.058171437e-10, No Iterations 2
Mass fraction min/max = 8.08955524e-117/0.1
DILUPBiCG:  Solving for Ux, Initial residual = 0.02216185118, Final residual = 8.379427309e-10, No Iterations 2
DILUPBiCG:  Solving for Uy, Initial residual = 0.02450946073, Final residual = 1.259799237e-09, No Iterations 2
DILUPBiCG:  Solving for Uz, Initial residual = 0.03473014606, Final residual = 2.229362439e-09, No Iterations 2
DILUPBiCG:  Solving for h, Initial residual = 0.0186730784, Final residual = 5.133389883e-09, No Iterations 2
max/min T: 59.38207029/52.96397401
max/min YbarLiq 4.551844968e-05/3.125798829e-120
DILUPBiCG:  Solving for p, Initial residual = 0.01795320376, Final residual = 1.601593023e-10, No Iterations 7
DILUPBiCG:  Solving for p, Initial residual = 3.918880554e-06, Final residual = 7.595631918e-10, No Iterations 4
max(mag(U)): 38.94932888
diagonal:  Solving for rho, Initial residual = 0, Final residual = 0, No Iterations 0
time step continuity errors : sum local = 4.527450572e-10, global = 4.013988757e-10, cumulative = 1.77419376e-11
max/min YbarLiq 4.552195435e-05/3.12577166e-120
DILUPBiCG:  Solving for p, Initial residual = 1.148154e-05, Final residual = 4.248407764e-10, No Iterations 4
DILUPBiCG:  Solving for p, Initial residual = 1.306097535e-08, Final residual = 1.318330484e-09, No Iterations 1
max(mag(U)): 38.94533535
diagonal:  Solving for rho, Initial residual = 0, Final residual = 0, No Iterations 0
time step continuity errors : sum local = 9.235775792e-11, global = 1.438714052e-12, cumulative = 1.918065165e-11
max/min Maf: 0.263412354/0
max/min kappa: 0.726882191/0
ExecutionTime = 4.67 s  ClockTime = 4 s

Mean and max Acoustic Courant Numbers = 0.5646992136 50.60968586
Courant Number mean: 0.07799512704 max: 0.5969583042 velocity magnitude: 38.64691294
deltaT = 4.96854331e-06
Time = 0.0001553476374

PIMPLE: iteration 1
diagonal:  Solving for rho, Initial residual = 0, Final residual = 0, No Iterations 0
rho min/max = 0.3937001819/0.4675364877
DILUPBiCG:  Solving for Y.Liq, Initial residual = 0.01083940642, Final residual = 5.631237308e-10, No Iterations 2
Mass fraction min/max = 4.988030987e-116/0.1
DILUPBiCG:  Solving for Ux, Initial residual = 0.021603577, Final residual = 8.492022524e-10, No Iterations 2
DILUPBiCG:  Solving for Uy, Initial residual = 0.02433745617, Final residual = 1.071758259e-09, No Iterations 2
DILUPBiCG:  Solving for Uz, Initial residual = 0.03661566979, Final residual = 1.953332356e-09, No Iterations 2
DILUPBiCG:  Solving for h, Initial residual = 0.0182782678, Final residual = 6.24358612e-09, No Iterations 2
max/min T: 59.5148452/52.93977352
max/min YbarLiq 4.552274922e-05/1.927229994e-119
DILUPBiCG:  Solving for p, Initial residual = 0.01755098725, Final residual = 3.717141533e-09, No Iterations 6
DILUPBiCG:  Solving for p, Initial residual = 3.942554057e-06, Final residual = 5.109530518e-10, No Iterations 4
max(mag(U)): 38.82539997
diagonal:  Solving for rho, Initial residual = 0, Final residual = 0, No Iterations 0
time step continuity errors : sum local = 4.63131522e-10, global = 4.274272528e-10, cumulative = 1.918065165e-11
max/min YbarLiq 4.552649132e-05/1.927207377e-119
DILUPBiCG:  Solving for p, Initial residual = 1.076023228e-05, Final residual = 4.693112038e-10, No Iterations 4
DILUPBiCG:  Solving for p, Initial residual = 1.119801276e-08, Final residual = 2.989146181e-09, No Iterations 1
max(mag(U)): 38.82177269
diagonal:  Solving for rho, Initial residual = 0, Final residual = 0, No Iterations 0
time step continuity errors : sum local = 2.153566472e-10, global = 2.893312043e-12, cumulative = 2.207396369e-11
max/min Maf: 0.2629033029/0
max/min kappa: 0.7257400826/0
ExecutionTime = 4.8 s  ClockTime = 4 s

Mean and max Acoustic Courant Numbers = 0.5647183338 50.60969224
Courant Number mean: 0.0781549732 max: 0.5960351749 velocity magnitude: 38.57072004
deltaT = 4.997942974e-06
Time = 0.0001603455803

PIMPLE: iteration 1
diagonal:  Solving for rho, Initial residual = 0, Final residual = 0, No Iterations 0
rho min/max = 0.3937513434/0.4675829123
DILUPBiCG:  Solving for Y.Liq, Initial residual = 0.01054897419, Final residual = 5.119759718e-10, No Iterations 2
Mass fraction min/max = 3.070366902e-115/0.1
DILUPBiCG:  Solving for Ux, Initial residual = 0.02128116723, Final residual = 8.738054255e-10, No Iterations 2
DILUPBiCG:  Solving for Uy, Initial residual = 0.02396475325, Final residual = 1.489812772e-09, No Iterations 2
DILUPBiCG:  Solving for Uz, Initial residual = 0.03831984146, Final residual = 1.785986556e-09, No Iterations 2
DILUPBiCG:  Solving for h, Initial residual = 0.01798906068, Final residual = 7.788304422e-09, No Iterations 2
max/min T: 59.62774748/52.92155183
max/min YbarLiq 4.552727154e-05/1.186210589e-118
DILUPBiCG:  Solving for p, Initial residual = 0.01727476969, Final residual = 3.407587014e-09, No Iterations 6
DILUPBiCG:  Solving for p, Initial residual = 4.241103248e-06, Final residual = 1.204010306e-09, No Iterations 4
max(mag(U)): 38.83380457
diagonal:  Solving for rho, Initial residual = 0, Final residual = 0, No Iterations 0
time step continuity errors : sum local = 5.397820776e-10, global = 4.561762789e-10, cumulative = 2.207396369e-11
max/min YbarLiq 4.553124921e-05/1.186198252e-118
DILUPBiCG:  Solving for p, Initial residual = 1.041195431e-05, Final residual = 6.556991402e-10, No Iterations 4
DILUPBiCG:  Solving for p, Initial residual = 1.326061782e-08, Final residual = 3.939962736e-10, No Iterations 2
max(mag(U)): 38.83058667
diagonal:  Solving for rho, Initial residual = 0, Final residual = 0, No Iterations 0
time step continuity errors : sum local = 2.945703491e-11, global = 6.768546243e-13, cumulative = 2.275081832e-11
max/min Maf: 0.2626810707/0
max/min kappa: 0.7210964702/0
ExecutionTime = 4.93 s  ClockTime = 5 s

Mean and max Acoustic Courant Numbers = 0.568080757 50.9100991
Courant Number mean: 0.07878532342 max: 0.5986225305 velocity magnitude: 38.53729964
deltaT = 4.997942974e-06
Time = 0.0001653435233

PIMPLE: iteration 1
diagonal:  Solving for rho, Initial residual = 0, Final residual = 0, No Iterations 0
rho min/max = 0.393738634/0.4676320177
DILUPBiCG:  Solving for Y.Liq, Initial residual = 0.01021536812, Final residual = 4.192714927e-10, No Iterations 2
Mass fraction min/max = 1.809112951e-114/0.1
DILUPBiCG:  Solving for Ux, Initial residual = 0.02083155913, Final residual = 8.4080199e-10, No Iterations 2
DILUPBiCG:  Solving for Uy, Initial residual = 0.02353510648, Final residual = 1.450063123e-09, No Iterations 2
DILUPBiCG:  Solving for Uz, Initial residual = 0.03934831275, Final residual = 1.72162179e-09, No Iterations 2
DILUPBiCG:  Solving for h, Initial residual = 0.01759378368, Final residual = 8.654130671e-09, No Iterations 2
max/min T: 59.71968642/52.90469411
max/min YbarLiq 4.553205524e-05/6.988833864e-118
DILUPBiCG:  Solving for p, Initial residual = 0.016889755, Final residual = 3.256771754e-09, No Iterations 6
DILUPBiCG:  Solving for p, Initial residual = 4.457407521e-06, Final residual = 2.963639471e-09, No Iterations 4
max(mag(U)): 38.80226885
diagonal:  Solving for rho, Initial residual = 0, Final residual = 0, No Iterations 0
[...]
diagonal:  Solving for rho, Initial residual = 0, Final residual = 0, No Iterations 0
time step continuity errors : sum local = 1.283082492e-09, global = -9.567164207e-12, cumulative = -3.146860826e-08
max/min Maf: 0.6102373179/0
max/min kappa: 1/0
ExecutionTime = 239.36 s  ClockTime = 239 s

Mean and max Acoustic Courant Numbers = 0.3673674193 31.49718905
Courant Number mean: 0.09062834752 max: 0.5978710777 velocity magnitude: 81.08044506
deltaT = 3.51896738e-06
Time = 0.008166004731

PIMPLE: iteration 1
diagonal:  Solving for rho, Initial residual = 0, Final residual = 0, No Iterations 0
rho min/max = 0.3610125051/0.4799756361
DILUPBiCG:  Solving for Y.Liq, Initial residual = 0.00148937366, Final residual = 6.514429796e-10, No Iterations 3
Mass fraction min/max = 0.03470248072/0.1
DILUPBiCG:  Solving for Ux, Initial residual = 0.001064226177, Final residual = 2.917633295e-11, No Iterations 3
DILUPBiCG:  Solving for Uy, Initial residual = 0.003836741178, Final residual = 8.155959066e-11, No Iterations 3
DILUPBiCG:  Solving for Uz, Initial residual = 0.006564629316, Final residual = 1.317370306e-10, No Iterations 3
DILUPBiCG:  Solving for h, Initial residual = 0.005511683149, Final residual = 6.041667244e-09, No Iterations 3
max/min T: 60.98195069/43.66447512
max/min YbarLiq 4.58447576e-05/1.440769857e-05
DILUPBiCG:  Solving for p, Initial residual = 0.001593650479, Final residual = 5.106804592e-09, No Iterations 4
DILUPBiCG:  Solving for p, Initial residual = 1.316305815e-06, Final residual = 8.736724844e-09, No Iterations 2
max(mag(U)): 81.20711355
diagonal:  Solving for rho, Initial residual = 0, Final residual = 0, No Iterations 0
time step continuity errors : sum local = 7.851620061e-09, global = -2.035810014e-09, cumulative = -3.146860826e-08
max/min YbarLiq 4.584387313e-05/1.440956017e-05
DILUPBiCG:  Solving for p, Initial residual = 4.3278612e-06, Final residual = 8.383314068e-09, No Iterations 2
DILUPBiCG:  Solving for p, Initial residual = 2.339764571e-08, Final residual = 5.034987409e-11, No Iterations 2
max(mag(U)): 81.20550664
diagonal:  Solving for rho, Initial residual = 0, Final residual = 0, No Iterations 0
time step continuity errors : sum local = 8.470978766e-12, global = 1.204020403e-13, cumulative = -3.146848786e-08
max/min Maf: 0.6103579789/0
max/min kappa: 1/0
ExecutionTime = 239.49 s  ClockTime = 240 s

Mean and max Acoustic Courant Numbers = 0.3673619952 31.49637303
Courant Number mean: 0.09063722404 max: 0.5979584278 velocity magnitude: 81.07577865
deltaT = 3.51896738e-06
Time = 0.008169523698

PIMPLE: iteration 1
diagonal:  Solving for rho, Initial residual = 0, Final residual = 0, No Iterations 0
rho min/max = 0.3606448876/0.4807071785
DILUPBiCG:  Solving for Y.Liq, Initial residual = 0.001490043544, Final residual = 6.42100655e-10, No Iterations 3
Mass fraction min/max = 0.0347781889/0.1
DILUPBiCG:  Solving for Ux, Initial residual = 0.001064541551, Final residual = 2.927408681e-11, No Iterations 3
DILUPBiCG:  Solving for Uy, Initial residual = 0.003883993105, Final residual = 3.889030375e-09, No Iterations 3
DILUPBiCG:  Solving for Uz, Initial residual = 0.006550742695, Final residual = 1.310639859e-10, No Iterations 3
DILUPBiCG:  Solving for h, Initial residual = 0.005512311907, Final residual = 6.26440724e-09, No Iterations 3
max/min T: 60.90437717/43.53198688
max/min YbarLiq 4.584387296e-05/1.444432373e-05
DILUPBiCG:  Solving for p, Initial residual = 0.001591534305, Final residual = 5.256049866e-09, No Iterations 4
DILUPBiCG:  Solving for p, Initial residual = 1.346440847e-06, Final residual = 7.807238971e-09, No Iterations 2
max(mag(U)): 81.23925588
diagonal:  Solving for rho, Initial residual = 0, Final residual = 0, No Iterations 0
time step continuity errors : sum local = 7.784269436e-09, global = -2.009684067e-09, cumulative = -3.146848786e-08
max/min YbarLiq 4.584299681e-05/1.444601135e-05
DILUPBiCG:  Solving for p, Initial residual = 4.342781574e-06, Final residual = 8.333685395e-09, No Iterations 2
DILUPBiCG:  Solving for p, Initial residual = 2.40247928e-08, Final residual = 4.887068253e-11, No Iterations 2
max(mag(U)): 81.2411016
diagonal:  Solving for rho, Initial residual = 0, Final residual = 0, No Iterations 0
time step continuity errors : sum local = 8.131679183e-12, global = 1.459718092e-13, cumulative = -3.146834189e-08
max/min Maf: 0.6102389069/0
max/min kappa: 1/0
ExecutionTime = 239.62 s  ClockTime = 240 s

Mean and max Acoustic Courant Numbers = 0.3673576038 31.49556374
Courant Number mean: 0.09064978576 max: 0.5980537599 velocity magnitude: 81.04708524
deltaT = 3.51896738e-06
Time = 0.008173042666

PIMPLE: iteration 1
diagonal:  Solving for rho, Initial residual = 0, Final residual = 0, No Iterations 0
rho min/max = 0.3602829741/0.4813942134
DILUPBiCG:  Solving for Y.Liq, Initial residual = 0.001490448623, Final residual = 6.414081101e-10, No Iterations 3
Mass fraction min/max = 0.03485787782/0.1
DILUPBiCG:  Solving for Ux, Initial residual = 0.0010636808, Final residual = 2.934944722e-11, No Iterations 3
DILUPBiCG:  Solving for Uy, Initial residual = 0.003873058212, Final residual = 2.975899761e-11, No Iterations 3
DILUPBiCG:  Solving for Uz, Initial residual = 0.006537696417, Final residual = 1.30826074e-10, No Iterations 3
DILUPBiCG:  Solving for h, Initial residual = 0.005500585489, Final residual = 6.423419194e-09, No Iterations 3
max/min T: 60.89602661/43.41447517
max/min YbarLiq 4.584299702e-05/1.448263181e-05
DILUPBiCG:  Solving for p, Initial residual = 0.001585649954, Final residual = 5.365839884e-09, No Iterations 4
DILUPBiCG:  Solving for p, Initial residual = 1.336533811e-06, Final residual = 6.725029262e-09, No Iterations 2
max(mag(U)): 81.30695943
diagonal:  Solving for rho, Initial residual = 0, Final residual = 0, No Iterations 0
time step continuity errors : sum local = 7.686623164e-09, global = -1.987027759e-09, cumulative = -3.146834189e-08
max/min YbarLiq 4.584212949e-05/1.448406324e-05
DILUPBiCG:  Solving for p, Initial residual = 4.468096618e-06, Final residual = 8.604798207e-09, No Iterations 2
DILUPBiCG:  Solving for p, Initial residual = 2.210564413e-08, Final residual = 7.297918707e-09, No Iterations 1
max(mag(U)): 81.30858684
diagonal:  Solving for rho, Initial residual = 0, Final residual = 0, No Iterations 0
time step continuity errors : sum local = 1.017975094e-09, global = -7.783261648e-12, cumulative = -3.147612515e-08
max/min Maf: 0.6098834001/0
max/min kappa: 1/0
ExecutionTime = 239.74 s  ClockTime = 240 s

Mean and max Acoustic Courant Numbers = 0.3673526132 31.49476092
Courant Number mean: 0.09065864462 max: 0.5981574002 velocity magnitude: 80.99473549
deltaT = 3.51896738e-06
Time = 0.008176561633

PIMPLE: iteration 1
diagonal:  Solving for rho, Initial residual = 0, Final residual = 0, No Iterations 0
rho min/max = 0.3599327632/0.4819969522
DILUPBiCG:  Solving for Y.Liq, Initial residual = 0.001490981885, Final residual = 6.443691719e-10, No Iterations 3
Mass fraction min/max = 0.03494112441/0.1
DILUPBiCG:  Solving for Ux, Initial residual = 0.001061778661, Final residual = 2.943207307e-11, No Iterations 3
DILUPBiCG:  Solving for Uy, Initial residual = 0.003839038065, Final residual = 3.100610783e-11, No Iterations 3
DILUPBiCG:  Solving for Uz, Initial residual = 0.006534984609, Final residual = 1.310668376e-10, No Iterations 3
DILUPBiCG:  Solving for h, Initial residual = 0.005486624452, Final residual = 6.277614032e-09, No Iterations 3
max/min T: 60.88523986/43.31291328
max/min YbarLiq 4.584213e-05/1.452237191e-05
DILUPBiCG:  Solving for p, Initial residual = 0.001582853335, Final residual = 5.481703647e-09, No Iterations 4
DILUPBiCG:  Solving for p, Initial residual = 1.227489526e-06, Final residual = 6.674400778e-09, No Iterations 2
max(mag(U)): 81.35240308
diagonal:  Solving for rho, Initial residual = 0, Final residual = 0, No Iterations 0
time step continuity errors : sum local = 7.600915604e-09, global = -1.969966616e-09, cumulative = -3.147612515e-08
max/min YbarLiq 4.584127127e-05/1.452349621e-05
DILUPBiCG:  Solving for p, Initial residual = 4.683222197e-06, Final residual = 9.028958371e-09, No Iterations 2
DILUPBiCG:  Solving for p, Initial residual = 2.217783786e-08, Final residual = 2.855943875e-09, No Iterations 1
max(mag(U)): 81.35380604
diagonal:  Solving for rho, Initial residual = 0, Final residual = 0, No Iterations 0
time step continuity errors : sum local = 3.987120885e-10, global = -2.079064628e-12, cumulative = -3.147820421e-08
max/min Maf: 0.6092964312/0
max/min kappa: 1/0
ExecutionTime = 239.87 s  ClockTime = 240 s

Mean and max Acoustic Courant Numbers = 0.3673464585 31.4939643
Courant Number mean: 0.0906625072 max: 0.5982691949 velocity magnitude: 80.91920668
deltaT = 3.51896738e-06
Time = 0.0081800806

PIMPLE: iteration 1
diagonal:  Solving for rho, Initial residual = 0, Final residual = 0, No Iterations 0
rho min/max = 0.3595986252/0.4825160391
DILUPBiCG:  Solving for Y.Liq, Initial residual = 0.001491750859, Final residual = 6.494718225e-10, No Iterations 3
Mass fraction min/max = 0.0350274386/0.1
DILUPBiCG:  Solving for Ux, Initial residual = 0.001059610852, Final residual = 2.948669441e-11, No Iterations 3
DILUPBiCG:  Solving for Uy, Initial residual = 0.003892924463, Final residual = 5.431371008e-11, No Iterations 3
DILUPBiCG:  Solving for Uz, Initial residual = 0.00652888952, Final residual = 1.30211171e-10, No Iterations 3
DILUPBiCG:  Solving for h, Initial residual = 0.005471726122, Final residual = 6.037292246e-09, No Iterations 3
max/min T: 60.87188064/43.22791001
max/min YbarLiq 4.584127206e-05/1.456328342e-05
DILUPBiCG:  Solving for p, Initial residual = 0.001573919727, Final residual = 5.576927352e-09, No Iterations 4
DILUPBiCG:  Solving for p, Initial residual = 1.325497604e-06, Final residual = 8.705627988e-09, No Iterations 2
max(mag(U)): 81.37622524
diagonal:  Solving for rho, Initial residual = 0, Final residual = 0, No Iterations 0
time step continuity errors : sum local = 7.782296774e-09, global = -1.955883028e-09, cumulative = -3.147820421e-08
max/min YbarLiq 4.584042231e-05/1.456407673e-05
DILUPBiCG:  Solving for p, Initial residual = 4.589866663e-06, Final residual = 8.822142381e-09, No Iterations 2
DILUPBiCG:  Solving for p, Initial residual = 2.357834818e-08, Final residual = 2.68694294e-09, No Iterations 1
max(mag(U)): 81.37743326
diagonal:  Solving for rho, Initial residual = 0, Final residual = 0, No Iterations 0
time step continuity errors : sum local = 3.763786683e-10, global = -1.484995881e-12, cumulative = -3.147968921e-08
max/min Maf: 0.6084844384/0
max/min kappa: 1/0
ExecutionTime = 240 s  ClockTime = 240 s

Mean and max Acoustic Courant Numbers = 0.3673401233 31.49317366
Courant Number mean: 0.0906655235 max: 0.5983886159 velocity magnitude: 80.82106637
deltaT = 3.51896738e-06
Time = 0.008183599568

PIMPLE: iteration 1
diagonal:  Solving for rho, Initial residual = 0, Final residual = 0, No Iterations 0
rho min/max = 0.35928411/0.4829536806
DILUPBiCG:  Solving for Y.Liq, Initial residual = 0.001505137666, Final residual = 6.59016771e-10, No Iterations 3
Mass fraction min/max = 0.03511625683/0.1
DILUPBiCG:  Solving for Ux, Initial residual = 0.001058425845, Final residual = 2.943121601e-11, No Iterations 3
DILUPBiCG:  Solving for Uy, Initial residual = 0.003868291436, Final residual = 2.68840299e-11, No Iterations 3
DILUPBiCG:  Solving for Uz, Initial residual = 0.006534408068, Final residual = 1.294108186e-10, No Iterations 3
DILUPBiCG:  Solving for h, Initial residual = 0.005452358791, Final residual = 5.970829432e-09, No Iterations 3
max/min T: 60.85547149/43.1598477
max/min YbarLiq 4.584042335e-05/1.460509119e-05
DILUPBiCG:  Solving for p, Initial residual = 0.001561752025, Final residual = 5.662865243e-09, No Iterations 4
DILUPBiCG:  Solving for p, Initial residual = 1.349894893e-06, Final residual = 7.03658632e-09, No Iterations 2
max(mag(U)): 81.37893099
diagonal:  Solving for rho, Initial residual = 0, Final residual = 0, No Iterations 0
time step continuity errors : sum local = 7.676481396e-09, global = -1.935770667e-09, cumulative = -3.147968921e-08
max/min YbarLiq 4.583958274e-05/1.460553794e-05
DILUPBiCG:  Solving for p, Initial residual = 4.41500381e-06, Final residual = 8.304035267e-09, No Iterations 2
DILUPBiCG:  Solving for p, Initial residual = 2.305885395e-08, Final residual = 7.520293371e-09, No Iterations 1
max(mag(U)): 81.37997577
diagonal:  Solving for rho, Initial residual = 0, Final residual = 0, No Iterations 0
time step continuity errors : sum local = 1.055033298e-09, global = -9.128737109e-12, cumulative = -3.148881795e-08
max/min Maf: 0.6074547317/0
max/min kappa: 1/0
ExecutionTime = 240.12 s  ClockTime = 240 s

Mean and max Acoustic Courant Numbers = 0.3673345607 31.49238876
Courant Number mean: 0.09067188931 max: 0.5985148888 velocity magnitude: 80.70090252
deltaT = 3.51896738e-06
Time = 0.008187118535

PIMPLE: iteration 1
diagonal:  Solving for rho, Initial residual = 0, Final residual = 0, No Iterations 0
rho min/max = 0.3589966989/0.4833117212
DILUPBiCG:  Solving for Y.Liq, Initial residual = 0.001505724412, Final residual = 6.769245893e-10, No Iterations 3
Mass fraction min/max = 0.03520693681/0.1
DILUPBiCG:  Solving for Ux, Initial residual = 0.001057372601, Final residual = 2.935518333e-11, No Iterations 3
DILUPBiCG:  Solving for Uy, Initial residual = 0.003873101954, Final residual = 2.772151973e-11, No Iterations 3
DILUPBiCG:  Solving for Uz, Initial residual = 0.006543733286, Final residual = 1.297002166e-10, No Iterations 3
DILUPBiCG:  Solving for h, Initial residual = 0.005432999191, Final residual = 6.224921021e-09, No Iterations 3
max/min T: 60.83536295/43.10857033
max/min YbarLiq 4.583958401e-05/1.464749037e-05
DILUPBiCG:  Solving for p, Initial residual = 0.001556951851, Final residual = 5.878725323e-09, No Iterations 4
DILUPBiCG:  Solving for p, Initial residual = 1.458463421e-06, Final residual = 6.608136492e-09, No Iterations 2
max(mag(U)): 81.36088446
diagonal:  Solving for rho, Initial residual = 0, Final residual = 0, No Iterations 0
time step continuity errors : sum local = 7.673079601e-09, global = -1.914871984e-09, cumulative = -3.148881795e-08
max/min YbarLiq 4.583875264e-05/1.46475361e-05
DILUPBiCG:  Solving for p, Initial residual = 4.475813473e-06, Final residual = 8.090320172e-09, No Iterations 2
DILUPBiCG:  Solving for p, Initial residual = 3.205106438e-08, Final residual = 2.452169091e-09, No Iterations 1
max(mag(U)): 81.36157162
diagonal:  Solving for rho, Initial residual = 0, Final residual = 0, No Iterations 0
time step continuity errors : sum local = 3.451813206e-10, global = 6.059833775e-13, cumulative = -3.148821196e-08
max/min Maf: 0.6062139923/0
max/min kappa: 1/0
ExecutionTime = 240.25 s  ClockTime = 240 s

Mean and max Acoustic Courant Numbers = 0.3673307772 31.49160935
Courant Number mean: 0.09068705287 max: 0.5986471226 velocity magnitude: 80.55913976
deltaT = 3.51896738e-06
Time = 0.008190637503

PIMPLE: iteration 1
diagonal:  Solving for rho, Initial residual = 0, Final residual = 0, No Iterations 0
rho min/max = 0.3587337128/0.4835870778
DILUPBiCG:  Solving for Y.Liq, Initial residual = 0.001506431531, Final residual = 6.76156154e-10, No Iterations 3
Mass fraction min/max = 0.03529877911/0.1
DILUPBiCG:  Solving for Ux, Initial residual = 0.001055963314, Final residual = 2.930729451e-11, No Iterations 3
DILUPBiCG:  Solving for Uy, Initial residual = 0.003842459874, Final residual = 2.818150235e-11, No Iterations 3
DILUPBiCG:  Solving for Uz, Initial residual = 0.006546537595, Final residual = 1.29842621e-10, No Iterations 3
DILUPBiCG:  Solving for h, Initial residual = 0.005419230803, Final residual = 5.501710675e-09, No Iterations 3
max/min T: 60.81095778/43.07409512
max/min YbarLiq 4.583875412e-05/1.469012305e-05
DILUPBiCG:  Solving for p, Initial residual = 0.001547991643, Final residual = 6.080343722e-09, No Iterations 4
DILUPBiCG:  Solving for p, Initial residual = 1.444279449e-06, Final residual = 5.589163557e-09, No Iterations 2
max(mag(U)): 81.32185275
diagonal:  Solving for rho, Initial residual = 0, Final residual = 0, No Iterations 0
time step continuity errors : sum local = 7.594967276e-09, global = -1.892430379e-09, cumulative = -3.148821196e-08
max/min YbarLiq 4.58379321e-05/1.468968921e-05
DILUPBiCG:  Solving for p, Initial residual = 4.566563064e-06, Final residual = 8.199283467e-09, No Iterations 2
DILUPBiCG:  Solving for p, Initial residual = 2.790873336e-08, Final residual = 2.272633989e-09, No Iterations 1
max(mag(U)): 81.32215295
diagonal:  Solving for rho, Initial residual = 0, Final residual = 0, No Iterations 0
time step continuity errors : sum local = 3.204193558e-10, global = 4.262206839e-12, cumulative = -3.148394976e-08
max/min Maf: 0.6052560089/0
max/min kappa: 1/0
ExecutionTime = 240.37 s  ClockTime = 241 s

Mean and max Acoustic Courant Numbers = 0.3673308133 31.49083526
Courant Number mean: 0.09071649242 max: 0.5987843545 velocity magnitude: 80.48178209
deltaT = 3.51896738e-06
Time = 0.00819415647

PIMPLE: iteration 1
diagonal:  Solving for rho, Initial residual = 0, Final residual = 0, No Iterations 0
rho min/max = 0.3584895752/0.483775382
DILUPBiCG:  Solving for Y.Liq, Initial residual = 0.001508217732, Final residual = 6.748806745e-10, No Iterations 3
Mass fraction min/max = 0.03539109204/0.1
DILUPBiCG:  Solving for Ux, Initial residual = 0.001055395105, Final residual = 2.923778613e-11, No Iterations 3
DILUPBiCG:  Solving for Uy, Initial residual = 0.003845126953, Final residual = 3.771565521e-11, No Iterations 3
DILUPBiCG:  Solving for Uz, Initial residual = 0.006544028985, Final residual = 1.301138338e-10, No Iterations 3
DILUPBiCG:  Solving for h, Initial residual = 0.005408257226, Final residual = 5.388526545e-09, No Iterations 3
max/min T: 60.7819132/43.05611762
max/min YbarLiq 4.583793377e-05/1.473262425e-05
DILUPBiCG:  Solving for p, Initial residual = 0.001539616222, Final residual = 6.391833935e-09, No Iterations 4
DILUPBiCG:  Solving for p, Initial residual = 1.452898474e-06, Final residual = 3.090547657e-10, No Iterations 3
max(mag(U)): 81.26169973
diagonal:  Solving for rho, Initial residual = 0, Final residual = 0, No Iterations 0
time step continuity errors : sum local = 7.290505393e-09, global = -1.880620583e-09, cumulative = -3.148394976e-08
max/min YbarLiq 4.583712118e-05/1.473166314e-05
DILUPBiCG:  Solving for p, Initial residual = 4.404036285e-06, Final residual = 8.061743357e-09, No Iterations 2
DILUPBiCG:  Solving for p, Initial residual = 3.611067945e-08, Final residual = 2.628388849e-09, No Iterations 1
max(mag(U)): 81.26166813
diagonal:  Solving for rho, Initial residual = 0, Final residual = 0, No Iterations 0
time step continuity errors : sum local = 3.71185251e-10, global = 6.252922949e-12, cumulative = -3.147769683e-08
max/min Maf: 0.6063161281/0
max/min kappa: 1/0
ExecutionTime = 240.5 s  ClockTime = 241 s

Mean and max Acoustic Courant Numbers = 0.3673309837 31.49006633
Courant Number mean: 0.09074393586 max: 0.59892567 velocity magnitude: 80.5888048
deltaT = 3.51896738e-06
Time = 0.008197675437

PIMPLE: iteration 1
diagonal:  Solving for rho, Initial residual = 0, Final residual = 0, No Iterations 0
rho min/max = 0.3582661516/0.4838748174
DILUPBiCG:  Solving for Y.Liq, Initial residual = 0.00150897505, Final residual = 6.777369839e-10, No Iterations 3
Mass fraction min/max = 0.03548310698/0.1
DILUPBiCG:  Solving for Ux, Initial residual = 0.001055443962, Final residual = 2.920448023e-11, No Iterations 3
DILUPBiCG:  Solving for Uy, Initial residual = 0.003910837296, Final residual = 4.263745956e-11, No Iterations 3
DILUPBiCG:  Solving for Uz, Initial residual = 0.006528972795, Final residual = 1.301375571e-10, No Iterations 3
DILUPBiCG:  Solving for h, Initial residual = 0.005391318455, Final residual = 5.449778746e-09, No Iterations 3
max/min T: 60.74819737/43.05465717
max/min YbarLiq 4.583712303e-05/1.477463211e-05
