/*---------------------------------------------------------------------------*\
| =========                 |                                                 |
| \\      /  F ield         | OpenFOAM: The Open Source CFD Toolbox           |
|  \\    /   O peration     | Version:  3.0.0                                 |
|   \\  /    A nd           | Web:      www.OpenFOAM.org                      |
|    \\/     M anipulation  |                                                 |
\*---------------------------------------------------------------------------*/
Build  : 3.0.0-6abec57f5449
Exec   : blockMesh
Date   : Mar 15 2016
Time   : 13:19:17
Host   : "bl460-9.unicluster.ru"
PID    : 22214
Case   : /lustre/unicluster/home/matvey.kraposhin/run/Unicfdlab/github-twoPhaseMixingCentralFoam/Tutorials-3.0.0/shockTube/gas-ssonic
nProcs : 1
sigFpe : Enabling floating point exception trapping (FOAM_SIGFPE).
fileModificationChecking : Monitoring run-time modified files using timeStampMaster
allowSystemOperations : Allowing user-supplied system call operations

// * * * * * * * * * * * * * * * * * * * * * * * * * * * * * * * * * * * * * //
Create time

Creating block mesh from
    "/lustre/unicluster/home/matvey.kraposhin/run/Unicfdlab/github-twoPhaseMixingCentralFoam/Tutorials-3.0.0/shockTube/gas-ssonic/constant/polyMesh/blockMeshDict"
Creating curved edges
Creating topology blocks
Creating topology patches

Creating block mesh topology

Check topology

	Basic statistics
		Number of internal faces : 0
		Number of boundary faces : 6
		Number of defined boundary faces : 6
		Number of undefined boundary faces : 0
	Checking patch -> block consistency

Creating block offsets
Creating merge list .

Creating polyMesh from blockMesh
Creating patches
Creating cells
Creating points with scale 1
    Block 0 cell size :
        i : 0.00305 .. 0.00305
        j : 0.006 .. 0.006
        k : 0.02 .. 0.02


Writing polyMesh
----------------
Mesh Information
----------------
  boundingBox: (-0.1525 -0.03 -0.01) (0.1525 0.03 0.01)
  nPoints: 2222
  nCells: 1000
  nFaces: 4110
  nInternalFaces: 1890
----------------
Patches
----------------
  patch 0 (start: 1890 size: 20) name: sides1
  patch 1 (start: 1910 size: 200) name: sides2
  patch 2 (start: 2110 size: 2000) name: empty

End

/*---------------------------------------------------------------------------*\
| =========                 |                                                 |
| \\      /  F ield         | OpenFOAM: The Open Source CFD Toolbox           |
|  \\    /   O peration     | Version:  3.0.0                                 |
|   \\  /    A nd           | Web:      www.OpenFOAM.org                      |
|    \\/     M anipulation  |                                                 |
\*---------------------------------------------------------------------------*/
Build  : 3.0.0-6abec57f5449
Exec   : twoPhaseMixingCentralFoam
Date   : Mar 15 2016
Time   : 13:19:18
Host   : "bl460-9.unicluster.ru"
PID    : 22218
Case   : /lustre/unicluster/home/matvey.kraposhin/run/Unicfdlab/github-twoPhaseMixingCentralFoam/Tutorials-3.0.0/shockTube/gas-ssonic
nProcs : 1
sigFpe : Enabling floating point exception trapping (FOAM_SIGFPE).
fileModificationChecking : Monitoring run-time modified files using timeStampMaster
allowSystemOperations : Allowing user-supplied system call operations

// * * * * * * * * * * * * * * * * * * * * * * * * * * * * * * * * * * * * * //
Create time

Create mesh for time = 0

Reading g

Reading transportProperties

Reading field U

Constructing compressibleTwoPhaseMixtureThermo

max/min T: 288.89/231.1
Reading thermophysical properties

max/min T: 288.89/231.1
Calculating mass flux field phi

Creating turbulence model

Selecting turbulence model type laminar
Creating field dpdt

Creating field gradp

Creating field kinetic energy K

Declare and initialise the cumulative continuity error

/*---------------------------------------------------------------------------*\
| =========                 |                                                 |
| \\      /  F ield         | OpenFOAM: The Open Source CFD Toolbox           |
|  \\    /   O peration     | Version:  3.0.0                                 |
|   \\  /    A nd           | Web:      www.OpenFOAM.org                      |
|    \\/     M anipulation  |                                                 |
\*---------------------------------------------------------------------------*/
Build  : 3.0.0-6abec57f5449
Exec   : sample
Date   : Mar 15 2016
Time   : 13:19:18
Host   : "bl460-9.unicluster.ru"
PID    : 22234
Case   : /lustre/unicluster/home/matvey.kraposhin/run/Unicfdlab/github-twoPhaseMixingCentralFoam/Tutorials-3.0.0/shockTube/gas-ssonic
nProcs : 1
sigFpe : Enabling floating point exception trapping (FOAM_SIGFPE).
fileModificationChecking : Monitoring run-time modified files using timeStampMaster
allowSystemOperations : Allowing user-supplied system call operations

// * * * * * * * * * * * * * * * * * * * * * * * * * * * * * * * * * * * * * //
Create time

Create mesh for time = 0

Reading set description:
    line

Time = 0

End

